STAAD SPACE
START JOB INFORMATION
ENGINEER DATE 02-Apr-26
END JOB INFORMATION
INPUT WIDTH 79
SET NL 100
UNIT METER KN
JOINT COORDINATES
1 0 0 0; 3 15 0 0; 4 0 11.2 0; 5 15 11.2 0; 6 7.50002 11.95 0; 7 0 1.27 0;
8 15 1.27 0; 9 0 2.54001 0; 10 15 2.54001 0; 11 0 3.81001 0; 12 15 3.81001 0;
13 0 5.08001 0; 14 15 5.08001 0; 15 0 6.35001 0; 16 15 6.35001 0;
17 0 7.62002 0; 18 15 7.62002 0; 19 1.27 0 0; 20 1.27 1.27 0;
21 1.27 2.54001 0; 22 1.27 3.81001 0; 23 1.27 5.08001 0; 24 1.27 6.35001 0;
25 1.27 7.62002 0; 26 13.73 0 0; 27 13.73 1.27 0; 28 13.73 2.54001 0;
29 13.73 3.81001 0; 30 13.73 5.08001 0; 31 13.73 6.35001 0; 32 13.73 7.62002 0;
33 0 0 7.50002; 34 15 0 7.50002; 35 0 11.2 7.50002; 36 15 11.2 7.50002;
37 7.50002 11.95 7.50002; 38 0 1.27 7.50002; 39 15 1.27 7.50002;
40 0 2.54001 7.50002; 41 15 2.54001 7.50002; 42 0 3.81001 7.50002;
43 15 3.81001 7.50002; 44 0 5.08001 7.50002; 45 15 5.08001 7.50002;
46 0 6.35001 7.50002; 47 15 6.35001 7.50002; 48 0 7.62002 7.50002;
49 15 7.62002 7.50002; 50 1.27 0 7.50002; 51 1.27 1.27 7.50002;
52 1.27 2.54001 7.50002; 53 1.27 3.81001 7.50002; 54 1.27 5.08001 7.50002;
55 1.27 6.35001 7.50002; 56 1.27 7.62002 7.50002; 57 13.73 0 7.50002;
58 13.73 1.27 7.50002; 59 13.73 2.54001 7.50002; 60 13.73 3.81001 7.50002;
61 13.73 5.08001 7.50002; 62 13.73 6.35001 7.50002; 63 13.73 7.62002 7.50002;
64 0 0 15; 65 15 0 15; 66 0 11.2 15; 67 15 11.2 15; 68 7.50002 11.95 15;
69 0 1.27 15; 70 15 1.27 15; 71 0 2.54001 15; 72 15 2.54001 15;
73 0 3.81001 15; 74 15 3.81001 15; 75 0 5.08001 15; 76 15 5.08001 15;
# ... 132 like lines cut
MEMBER INCIDENCES
1 1 7; 2 4 6; 3 3 8; 4 5 6; 5 7 9; 6 8 10; 7 9 11; 8 10 12; 9 11 13; 10 12 14;
11 13 15; 12 14 16; 13 15 17; 14 16 18; 15 17 4; 16 18 5; 17 19 20; 18 20 21;
19 21 22; 20 22 23; 21 23 24; 22 24 25; 23 26 27; 24 27 28; 25 28 29; 26 29 30;
27 30 31; 28 31 32; 29 1 20; 30 20 9; 31 9 22; 32 22 13; 33 13 24; 34 24 17;
35 25 15; 36 15 23; 37 23 11; 38 11 21; 39 21 7; 40 7 19; 41 7 20; 42 9 21;
43 11 22; 44 13 23; 45 15 24; 46 17 25; 47 3 27; 48 27 10; 49 10 29; 50 29 14;
51 14 31; 52 31 18; 53 32 16; 54 16 30; 55 30 12; 56 12 28; 57 28 8; 58 8 26;
59 32 18; 60 31 16; 61 30 14; 62 29 12; 63 28 10; 64 27 8; 65 33 38; 66 35 37;
67 34 39; 68 36 37; 69 38 40; 70 39 41; 71 40 42; 72 41 43; 73 42 44; 74 43 45;
75 44 46; 76 45 47; 77 46 48; 78 47 49; 79 48 35; 80 49 36; 81 50 51; 82 51 52;
83 52 53; 84 53 54; 85 54 55; 86 55 56; 87 57 58; 88 58 59; 89 59 60; 90 60 61;
91 61 62; 92 62 63; 93 33 51; 94 51 40; 95 40 53; 96 53 44; 97 44 55; 98 55 48;
99 56 46; 100 46 54; 101 54 42; 102 42 52; 103 52 38; 104 38 50; 105 38 51;
106 40 52; 107 42 53; 108 44 54; 109 46 55; 110 48 56; 111 34 58; 112 58 41;
113 41 60; 114 60 45; 115 45 62; 116 62 49; 117 63 47; 118 47 61; 119 61 43;
120 43 59; 121 59 39; 122 39 57; 123 63 49; 124 62 47; 125 61 45; 126 60 43;
127 59 41; 128 58 39; 129 64 69; 130 66 68; 131 65 70; 132 67 68; 133 69 71;
134 70 72; 135 71 73; 136 72 74; 137 73 75; 138 74 76; 139 75 77; 140 76 78;
141 77 79; 142 78 80; 143 79 66; 144 80 67; 145 81 82; 146 82 83; 147 83 84;
148 84 85; 149 85 86; 150 86 87; 151 88 89; 152 89 90; 153 90 91; 154 91 92;
# ... 152 like lines cut
DEFINE MATERIAL START
ISOTROPIC STEEL
E 1.99947e+08
POISSON 0.3
DENSITY 76.8191
ALPHA 6.5e-06
DAMP 0.03
G 7.7221e+07
TYPE STEEL
STRENGTH FY 248210 FU 399894 RY 1.5 RT 1.2
END DEFINE MATERIAL
MEMBER PROPERTY
1 3 5 TO 16 65 67 69 TO 80 129 131 133 TO 144 193 195 197 TO 208 257 259 261 -
262 TO 272 321 323 325 TO 336 385 387 389 TO 400 449 451 453 TO 464 513 515 -
517 TO 528 577 579 581 TO 592 641 643 645 TO 656 705 707 709 TO 720 769 771 -
773 TO 784 833 835 837 TO 848 897 899 901 TO 911 -
912 TAPERED 0.524 0.006 0.524 0.25 0.012
2 4 66 68 130 132 194 196 258 260 322 324 386 388 450 452 514 516 578 580 -
642 644 706 708 770 772 834 836 898 900 TAPERED 0.5 0.005 0.5 0.185 0.006
17 TO 28 81 TO 92 145 TO 156 209 TO 220 273 TO 284 337 TO 348 401 TO 412 465 -
466 TO 476 529 TO 540 593 TO 604 657 TO 668 721 TO 732 785 TO 796 849 TO 860 -
913 TO 924 TAPERED 0.85 0.012 0.85 0.45 0.025
46 59 110 123 174 187 238 251 302 315 366 379 430 443 494 507 558 571 622 -
635 686 699 750 763 814 827 878 891 942 -
955 TAPERED 0.424 0.005 0.424 0.2 0.01
MEMBER PROPERTY INDIAN
41 TO 45 60 TO 64 105 TO 109 124 TO 128 169 TO 173 188 TO 192 233 TO 237 252 -
253 TO 256 297 TO 301 316 TO 320 361 TO 365 380 TO 384 425 TO 429 444 TO 448 -
489 TO 493 508 TO 512 553 TO 557 572 TO 576 617 TO 621 636 TO 640 -
681 TO 685 700 TO 704 745 TO 749 764 TO 768 809 TO 813 828 TO 832 -
873 TO 877 892 TO 896 937 TO 941 956 TO 960 TABLE ST ISA50X50X4
29 TO 32 37 TO 40 47 TO 50 55 TO 58 93 TO 96 101 TO 104 111 TO 114 -
119 TO 122 157 TO 160 165 TO 168 175 TO 178 183 TO 186 221 TO 224 -
229 TO 232 239 TO 242 247 TO 250 285 TO 288 293 TO 296 303 TO 306 -
311 TO 314 349 TO 352 357 TO 360 367 TO 370 375 TO 378 413 TO 416 -
421 TO 424 431 TO 434 439 TO 442 477 TO 480 485 TO 488 495 TO 498 -
503 TO 506 541 TO 544 549 TO 552 559 TO 562 567 TO 570 605 TO 608 -
613 TO 616 623 TO 626 631 TO 634 669 TO 672 677 TO 680 687 TO 690 -
695 TO 698 733 TO 736 741 TO 744 751 TO 754 759 TO 762 797 TO 800 -
805 TO 808 815 TO 818 823 TO 826 861 TO 864 869 TO 872 879 TO 882 -
887 TO 890 925 TO 928 933 TO 936 943 TO 946 951 TO 953 -
954 TABLE ST ISA120X120X8
33 TO 36 51 TO 54 97 TO 100 115 TO 118 161 TO 164 179 TO 182 225 TO 228 243 -
244 TO 246 289 TO 292 307 TO 310 353 TO 356 371 TO 374 417 TO 420 435 TO 438 -
481 TO 484 499 TO 502 545 TO 548 563 TO 566 609 TO 612 627 TO 630 -
673 TO 676 691 TO 694 737 TO 740 755 TO 758 801 TO 804 819 TO 822 -
865 TO 868 883 TO 886 929 TO 932 947 TO 950 TABLE ST ISA130X130X8
MEMBER PROPERTY COLDFORMED INDIAN
961 TO 1002 TABLE ST 200ZS60X2
MEMBER PROPERTY APLAPOLLOTUBES
1008 1009 1015 1016 1038 1039 1048 1049 1057 1058 1066 -
1067 TABLE ST 114.3X2.0CHS
1006 1007 1013 1014 1017 TO 1022 1025 TO 1028 1033 TO 1036 1040 TO 1045 1050 -
1051 TO 1055 1059 TO 1064 TABLE ST 101.6X4.0CHS
MEMBER PROPERTY INDIAN
1005 1012 1023 1024 1029 1037 1046 1047 1056 1065 TABLE ST TUB75754
CONSTANTS
BETA 90 MEMB 17 TO 28 81 TO 92 145 TO 156 209 TO 220 273 TO 284 337 TO 348 -
401 TO 412 465 TO 476 529 TO 540 593 TO 604 657 TO 668 721 TO 732 -
785 TO 796 849 TO 860 913 TO 924
MATERIAL STEEL ALL
MEMBER TRUSS 
29 TO 45 47 TO 58 60 TO 64 93 TO 109 111 TO 122 124 TO 128 157 TO 173 175 -
176 TO 186 188 TO 192 221 TO 237 239 TO 250 252 TO 256 285 TO 301 303 TO 314 -
316 TO 320 349 TO 365 367 TO 378 380 TO 384 413 TO 429 431 TO 442 -
444 TO 448 477 TO 493 495 TO 506 508 TO 512 541 TO 557 559 TO 570 -
572 TO 576 605 TO 621 623 TO 634 636 TO 640 669 TO 685 687 TO 698 -
700 TO 704 733 TO 749 751 TO 762 764 TO 768 797 TO 813 815 TO 826 -
828 TO 832 861 TO 877 879 TO 890 892 TO 896 925 TO 941 943 TO 954 -
956 TO 960
MEMBER TRUSS 
1005 TO 1009 1012 TO 1029 1033 TO 1067
SUPPORTS
1 3 33 34 64 65 95 96 126 127 157 158 188 189 219 220 250 251 281 282 312 -
313 343 344 374 375 405 406 436 437 FIXED BUT MX
19 26 50 57 81 88 112 119 143 150 174 181 205 212 236 243 267 274 298 305 -
329 336 360 367 391 398 422 429 453 460 FIXED BUT MZ
DEFINE IS1893 2016 LOAD
ZONE 0.16 RF 3 I 1.5 SS 2 ST 3 DM 0.05
SELFWEIGHT 1 
MEMBER WEIGHT
2 4 66 68 130 132 194 196 258 260 322 324 386 388 450 452 514 516 578 580 -
642 644 706 708 770 772 834 836 898 900 UNI 0.9 0 0
LOAD 1 LOADTYPE Seismic-H  TITLE EQX+
1893 LOAD X 1
PERFORM ANALYSIS
CHANGE
*************************************************************************
LOAD 2 LOADTYPE Seismic-H  TITLE EQX-
1893 LOAD X -1
PERFORM ANALYSIS
CHANGE
*************************************************************************
LOAD 3 LOADTYPE Seismic-H  TITLE EQZ+
1893 LOAD Z 1
PERFORM ANALYSIS
CHANGE
*************************************************************************
LOAD 4 LOADTYPE Seismic-H  TITLE EQZ-
1893 LOAD Z -1
PERFORM ANALYSIS
CHANGE
*************************************************************************
LOAD 5 LOADTYPE Dead  TITLE DL
SELFWEIGHT Y -1 LIST 1 TO 960 1005 TO 1009 1012 TO 1029 1033 TO 1067
MEMBER LOAD
2 4 66 68 130 132 194 196 258 260 322 324 386 388 450 452 514 516 578 580 -
642 644 706 708 770 772 834 836 898 900 UNI GY -0.9
***************************************************************************
LOAD 6 LOADTYPE Roof Live  TITLE LL
MEMBER LOAD
2 4 66 68 130 132 194 196 258 260 322 324 386 388 450 452 514 516 578 580 -
642 644 706 708 770 772 834 836 898 900 UNI GY -4.5
***************************************************************************
LOAD 7 LOADTYPE Wind  TITLE WLP
MEMBER LOAD
1 5 7 9 11 13 15 65 69 71 73 75 77 79 129 133 135 137 139 141 143 193 197 -
199 201 203 205 207 257 261 263 265 267 269 271 321 325 327 329 331 333 335 -
385 389 391 393 395 397 399 449 453 455 457 459 461 463 513 517 519 521 523 -
525 527 577 581 583 585 587 589 591 641 645 647 649 651 653 655 705 709 711 -
713 715 717 719 769 773 775 777 779 781 783 833 837 839 841 843 845 847 897 -
901 903 905 907 909 911 UNI GX 3.38
2 66 130 194 258 322 386 450 514 578 642 706 770 834 898 UNI Y 7.43
4 68 132 196 260 324 388 452 516 580 644 708 772 836 900 UNI Y 5.4
3 6 8 10 12 14 16 67 70 72 74 76 78 80 131 134 136 138 140 142 144 195 198 -
200 202 204 206 208 259 262 264 266 268 270 272 323 326 328 330 332 334 336 -
387 390 392 394 396 398 400 451 454 456 458 460 462 464 515 518 520 522 524 -
526 528 579 582 584 586 588 590 592 643 646 648 650 652 654 656 707 710 712 -
714 716 718 720 771 774 776 778 780 782 784 835 838 840 842 844 846 848 899 -
902 904 906 908 910 912 UNI Y -3.38
****************************************************************************
LOAD 8 LOADTYPE Wind  TITLE WLS
MEMBER LOAD
1 5 7 9 11 13 15 65 69 71 73 75 77 79 129 133 135 137 139 141 143 193 197 -
199 201 203 205 207 257 261 263 265 267 269 271 321 325 327 329 331 333 335 -
385 389 391 393 395 397 399 449 453 455 457 459 461 463 513 517 519 521 523 -
525 527 577 581 583 585 587 589 591 641 645 647 649 651 653 655 705 709 711 -
713 715 717 719 769 773 775 777 779 781 783 833 837 839 841 843 845 847 897 -
901 903 905 907 909 911 UNI GX 6.08
2 66 130 194 258 322 386 450 514 578 642 706 770 834 898 UNI Y 4.73
4 68 132 196 260 324 388 452 516 580 644 708 772 836 900 UNI Y 2.7
3 6 8 10 12 14 16 67 70 72 74 76 78 80 131 134 136 138 140 142 144 195 198 -
200 202 204 206 208 259 262 264 266 268 270 272 323 326 328 330 332 334 336 -
387 390 392 394 396 398 400 451 454 456 458 460 462 464 515 518 520 522 524 -
526 528 579 582 584 586 588 590 592 643 646 648 650 652 654 656 707 710 712 -
714 716 718 720 771 774 776 778 780 782 784 835 838 840 842 844 846 848 899 -
902 904 906 908 910 912 UNI GX 0.68
******************************************************************************
LOAD 9 LOADTYPE Wind  TITLE WRP
MEMBER LOAD
1 5 7 9 11 13 15 65 69 71 73 75 77 79 129 133 135 137 139 141 143 193 197 -
199 201 203 205 207 257 261 263 265 267 269 271 321 325 327 329 331 333 335 -
385 389 391 393 395 397 399 449 453 455 457 459 461 463 513 517 519 521 523 -
525 527 577 581 583 585 587 589 591 641 645 647 649 651 653 655 705 709 711 -
713 715 717 719 769 773 775 777 779 781 783 833 837 839 841 843 845 847 897 -
901 903 905 907 909 911 UNI GX -3.38
2 66 130 194 258 322 386 450 514 578 642 706 770 834 898 UNI Y 5.4
4 68 132 196 260 324 388 452 516 580 644 708 772 836 900 UNI Y 7.43
3 6 8 10 12 14 16 67 70 72 74 76 78 80 131 134 136 138 140 142 144 195 198 -
200 202 204 206 208 259 262 264 266 268 270 272 323 326 328 330 332 334 336 -
387 390 392 394 396 398 400 451 454 456 458 460 462 464 515 518 520 522 524 -
526 528 579 582 584 586 588 590 592 643 646 648 650 652 654 656 707 710 712 -
714 716 718 720 771 774 776 778 780 782 784 835 838 840 842 844 846 848 899 -
902 904 906 908 910 912 UNI Y 3.38
***************************************************************************
LOAD 10 LOADTYPE Wind  TITLE WRS
MEMBER LOAD
1 5 7 9 11 13 15 65 69 71 73 75 77 79 129 133 135 137 139 141 143 193 197 -
199 201 203 205 207 257 261 263 265 267 269 271 321 325 327 329 331 333 335 -
385 389 391 393 395 397 399 449 453 455 457 459 461 463 513 517 519 521 523 -
525 527 577 581 583 585 587 589 591 641 645 647 649 651 653 655 705 709 711 -
713 715 717 719 769 773 775 777 779 781 783 833 837 839 841 843 845 847 897 -
901 903 905 907 909 911 UNI GX -0.68
2 66 130 194 258 322 386 450 514 578 642 706 770 834 898 UNI Y 2.7
4 68 132 196 260 324 388 452 516 580 644 708 772 836 900 UNI Y 4.73
3 6 8 10 12 14 16 67 70 72 74 76 78 80 131 134 136 138 140 142 144 195 198 -
200 202 204 206 208 259 262 264 266 268 270 272 323 326 328 330 332 334 336 -
387 390 392 394 396 398 400 451 454 456 458 460 462 464 515 518 520 522 524 -
526 528 579 582 584 586 588 590 592 643 646 648 650 652 654 656 707 710 712 -
714 716 718 720 771 774 776 778 780 782 784 835 838 840 842 844 846 848 899 -
902 904 906 908 910 912 UNI GX -6.8
*****************************************************************************
LOAD 11 LOADTYPE Wind  TITLE WPP
MEMBER LOAD
1 5 7 9 11 13 15 65 69 71 73 75 77 79 129 133 135 137 139 141 143 193 197 -
199 201 203 205 207 257 261 263 265 267 269 271 321 325 327 329 331 333 335 -
385 389 391 393 395 397 399 449 453 455 457 459 461 463 513 517 519 521 523 -
525 527 577 581 583 585 587 589 591 641 645 647 649 651 653 655 705 709 711 -
713 715 717 719 769 773 775 777 779 781 783 833 837 839 841 843 845 847 897 -
901 903 905 907 909 911 UNI GX -4.73
2 66 130 194 258 322 386 450 514 578 642 706 770 834 898 UNI Y 7.43
4 68 132 196 260 324 388 452 516 580 644 708 772 836 900 UNI Y 5.4
3 6 8 10 12 14 16 67 70 72 74 76 78 80 131 134 136 138 140 142 144 195 198 -
200 202 204 206 208 259 262 264 266 268 270 272 323 326 328 330 332 334 336 -
387 390 392 394 396 398 400 451 454 456 458 460 462 464 515 518 520 522 524 -
526 528 579 582 584 586 588 590 592 643 646 648 650 652 654 656 707 710 712 -
714 716 718 720 771 774 776 778 780 782 784 835 838 840 842 844 846 848 899 -
902 904 906 908 910 912 UNI GX 4.73
****************************************************************************
LOAD 12 LOADTYPE Wind  TITLE WPS
MEMBER LOAD
1 5 7 9 11 13 15 65 69 71 73 75 77 79 129 133 135 137 139 141 143 193 197 -
199 201 203 205 207 257 261 263 265 267 269 271 321 325 327 329 331 333 335 -
385 389 391 393 395 397 399 449 453 455 457 459 461 463 513 517 519 521 523 -
525 527 577 581 583 585 587 589 591 641 645 647 649 651 653 655 705 709 711 -
713 715 717 719 769 773 775 777 779 781 783 833 837 839 841 843 845 847 897 -
901 903 905 907 909 911 UNI GX -2.03
2 66 130 194 258 322 386 450 514 578 642 706 770 834 898 UNI Y 4.73
4 68 132 196 260 324 388 452 516 580 644 708 772 836 900 UNI Y 2.7
3 6 8 10 12 14 16 67 70 72 74 76 78 80 131 134 136 138 140 142 144 195 198 -
200 202 204 206 208 259 262 264 266 268 270 272 323 326 328 330 332 334 336 -
387 390 392 394 396 398 400 451 454 456 458 460 462 464 515 518 520 522 524 -
526 528 579 582 584 586 588 590 592 643 646 648 650 652 654 656 707 710 712 -
714 716 718 720 771 774 776 778 780 782 784 835 838 840 842 844 846 848 899 -
902 904 906 908 910 912 UNI GX 2.03
*********************************************************
LOAD 13 LOADTYPE None  TITLE CR1
JOINT LOAD
25 56 87 118 149 180 211 242 273 304 335 366 397 428 459 FX 84 FY -524 FZ 60
32 63 94 125 156 187 218 249 280 311 342 373 404 435 466 FX 84 FY -225 FZ 60
********************************************************
LOAD 14 LOADTYPE None  TITLE CR2
JOINT LOAD
32 63 94 125 156 187 218 249 280 311 342 373 404 435 466 FX 84 FY -524 FZ 60
25 56 87 118 149 180 211 242 273 304 335 366 397 428 459 FX 84 FY -225 FZ 60
********************************************************
LOAD 15 LOADTYPE None  TITLE CR3
JOINT LOAD
25 56 87 118 149 180 211 242 273 304 335 366 397 428 459 FX -84 FY -524 FZ 60
32 63 94 125 156 187 218 249 280 311 342 373 404 435 466 FX -84 FY -225 FZ 60
********************************************************
LOAD 16 LOADTYPE None  TITLE CR4
JOINT LOAD
32 63 94 125 156 187 218 249 280 311 342 373 404 435 466 FX -84 FY -524 FZ 60
25 56 87 118 149 180 211 242 273 304 335 366 397 428 459 FX -84 FY -225 FZ 60
LOAD COMB 101 COMB - 1 DEAD + 1 ROOF LIVE
5 1.0 6 1.0 
LOAD COMB 102 COMB - 1 DEAD + 1 WIND (1)
5 1.0 7 1.0 
LOAD COMB 103 COMB - 1 DEAD + 1 WIND (2)
5 1.0 8 1.0 
LOAD COMB 104 COMB - 1 DEAD + 1 WIND (3)
5 1.0 9 1.0 
LOAD COMB 105 COMB - 1 DEAD + 1 WIND (4)
5 1.0 10 1.0 
LOAD COMB 106 COMB - 1 DEAD + 1 WIND (5)
5 1.0 11 1.0 
LOAD COMB 107 COMB - 1 DEAD + 1 WIND (6)
5 1.0 12 1.0 
LOAD COMB 108 COMB - 1 DEAD + 0.75 ROOF LIVE + 0.75 WIND (1)
5 1.0 6 0.75 7 0.75 
LOAD COMB 109 COMB - 1 DEAD + 0.75 ROOF LIVE + 0.75 WIND (2)
5 1.0 6 0.75 8 0.75 
LOAD COMB 110 COMB - 1 DEAD + 0.75 ROOF LIVE + 0.75 WIND (3)
5 1.0 6 0.75 9 0.75 
LOAD COMB 111 COMB - 1 DEAD + 0.75 ROOF LIVE + 0.75 WIND (4)
5 1.0 6 0.75 10 0.75 
LOAD COMB 112 COMB - 1 DEAD + 0.75 ROOF LIVE + 0.75 WIND (5)
5 1.0 6 0.75 11 0.75 
LOAD COMB 113 COMB - 1 DEAD + 0.75 ROOF LIVE + 0.75 WIND (6)
5 1.0 6 0.75 12 0.75 
LOAD COMB 114 COMB - 0.6 DEAD + 1 WIND (1)
5 0.6 7 1.0 
LOAD COMB 115 COMB - 0.6 DEAD + 1 WIND (2)
5 0.6 8 1.0 
LOAD COMB 116 COMB - 0.6 DEAD + 1 WIND (3)
5 0.6 9 1.0 
LOAD COMB 117 COMB - 0.6 DEAD + 1 WIND (4)
5 0.6 10 1.0 
LOAD COMB 118 COMB - 0.6 DEAD + 1 WIND (5)
5 0.6 11 1.0 
LOAD COMB 119 COMB - 0.6 DEAD + 1 WIND (6)
5 0.6 12 1.0 
LOAD COMB 120 COMB - 1 DEAD + 0.7 SEISMIC-H (1)
5 1.0 1 0.7 
LOAD COMB 121 COMB - 1 DEAD + 0.7 SEISMIC-H (2)
5 1.0 2 0.7 
LOAD COMB 122 COMB - 1 DEAD + 0.7 SEISMIC-H (3)
5 1.0 3 0.7 
LOAD COMB 123 COMB - 1 DEAD + 0.7 SEISMIC-H (4)
5 1.0 4 0.7 
LOAD COMB 124 COMB - 1 DEAD + 0.75 ROOF LIVE + 0.53 SEISMIC-H (1)
5 1.0 6 0.75 1 0.53 
LOAD COMB 125 COMB - 1 DEAD + 0.75 ROOF LIVE + 0.53 SEISMIC-H (2)
5 1.0 6 0.75 2 0.53 
LOAD COMB 126 COMB - 1 DEAD + 0.75 ROOF LIVE + 0.53 SEISMIC-H (3)
5 1.0 6 0.75 3 0.53 
LOAD COMB 127 COMB - 1 DEAD + 0.75 ROOF LIVE + 0.53 SEISMIC-H (4)
5 1.0 6 0.75 4 0.53 
LOAD COMB 128 COMB - 0.6 DEAD + 0.7 SEISMIC-H (1)
5 0.6 1 0.7 
LOAD COMB 129 COMB - 0.6 DEAD + 0.7 SEISMIC-H (2)
5 0.6 2 0.7 
LOAD COMB 130 COMB - 0.6 DEAD + 0.7 SEISMIC-H (3)
5 0.6 3 0.7 
LOAD COMB 131 COMB - 0.6 DEAD + 0.7 SEISMIC-H (4)
5 0.6 4 0.7 
LOAD COMB 132 COMB - 1 DEAD + 1 CH + 1 CH + 1 CH + 1 CH
5 1.0 13 1.0 14 1.0 15 1.0 16 1.0 
LOAD COMB 133 COMB - 1 DEAD + 0.5 WIND + 1 CH + 1 CH + 1 CH + 1 CH (1)
5 1.0 7 0.5 13 1.0 14 1.0 15 1.0 16 1.0 
LOAD COMB 134 COMB - 1 DEAD + 0.5 WIND + 1 CH + 1 CH + 1 CH + 1 CH (2)
5 1.0 8 0.5 13 1.0 14 1.0 15 1.0 16 1.0 
LOAD COMB 135 COMB - 1 DEAD + 0.5 WIND + 1 CH + 1 CH + 1 CH + 1 CH (3)
5 1.0 9 0.5 13 1.0 14 1.0 15 1.0 16 1.0 
LOAD COMB 136 COMB - 1 DEAD + 0.5 WIND + 1 CH + 1 CH + 1 CH + 1 CH (4)
5 1.0 10 0.5 13 1.0 14 1.0 15 1.0 16 1.0 
LOAD COMB 137 COMB - 1 DEAD + 0.5 WIND + 1 CH + 1 CH + 1 CH + 1 CH (5)
5 1.0 11 0.5 13 1.0 14 1.0 15 1.0 16 1.0 
LOAD COMB 138 COMB - 1 DEAD + 0.5 WIND + 1 CH + 1 CH + 1 CH + 1 CH (6)
5 1.0 12 0.5 13 1.0 14 1.0 15 1.0 16 1.0 
LOAD COMB 139 COMB - 1 DEAD + 1 ROOF LIVE
5 1.0 6 1.0 
LOAD COMB 140 COMB - 1 DEAD + 0.8 ROOF LIVE + 0.8 WIND (1)
5 1.0 6 0.8 7 0.8 
LOAD COMB 141 COMB - 1 DEAD + 0.8 ROOF LIVE + 0.8 WIND (2)
5 1.0 6 0.8 8 0.8 
LOAD COMB 142 COMB - 1 DEAD + 0.8 ROOF LIVE + 0.8 WIND (3)
5 1.0 6 0.8 9 0.8 
LOAD COMB 143 COMB - 1 DEAD + 0.8 ROOF LIVE + 0.8 WIND (4)
5 1.0 6 0.8 10 0.8 
LOAD COMB 144 COMB - 1 DEAD + 0.8 ROOF LIVE + 0.8 WIND (5)
5 1.0 6 0.8 11 0.8 
LOAD COMB 145 COMB - 1 DEAD + 0.8 ROOF LIVE + 0.8 WIND (6)
5 1.0 6 0.8 12 0.8 
LOAD COMB 146 COMB - 1 DEAD + 1 WIND (1)
5 1.0 7 1.0 
LOAD COMB 147 COMB - 1 DEAD + 1 WIND (2)
5 1.0 8 1.0 
LOAD COMB 148 COMB - 1 DEAD + 1 WIND (3)
5 1.0 9 1.0 
LOAD COMB 149 COMB - 1 DEAD + 1 WIND (4)
5 1.0 10 1.0 
LOAD COMB 150 COMB - 1 DEAD + 1 WIND (5)
5 1.0 11 1.0 
LOAD COMB 151 COMB - 1 DEAD + 1 WIND (6)
5 1.0 12 1.0 
LOAD COMB 152 COMB - 1 DEAD + 0.8 ROOF LIVE + 0.8 SEISMIC-H (1)
5 1.0 6 0.8 1 0.8 
LOAD COMB 153 COMB - 1 DEAD + 0.8 ROOF LIVE + 0.8 SEISMIC-H (2)
5 1.0 6 0.8 2 0.8 
LOAD COMB 154 COMB - 1 DEAD + 0.8 ROOF LIVE + 0.8 SEISMIC-H (3)
5 1.0 6 0.8 3 0.8 
LOAD COMB 155 COMB - 1 DEAD + 0.8 ROOF LIVE + 0.8 SEISMIC-H (4)
5 1.0 6 0.8 4 0.8 
LOAD COMB 156 COMB - 1 DEAD + 1 SEISMIC-H (1)
5 1.0 1 1.0 
LOAD COMB 157 COMB - 1 DEAD + 1 SEISMIC-H (2)
5 1.0 2 1.0 
LOAD COMB 158 COMB - 1 DEAD + 1 SEISMIC-H (3)
5 1.0 3 1.0 
LOAD COMB 159 COMB - 1 DEAD + 1 SEISMIC-H (4)
5 1.0 4 1.0 
LOAD COMB 160 COMB - 1 DEAD + 1 ROOF LIVE + 1 CH + 1 CH + 1 CH + 1 CH
5 1.0 6 1.0 13 1.0 14 1.0 15 1.0 16 1.0 
LOAD COMB 161 COMB - 1 DEAD + 0.8 ROOF LIVE + 0.8 WIND + 0.8 CH + 0.8 CH + 0.8 CH + 0.8 CH (1)
5 1.0 6 0.8 7 0.8 13 0.8 14 0.8 15 0.8 16 0.8 
LOAD COMB 162 COMB - 1 DEAD + 0.8 ROOF LIVE + 0.8 WIND + 0.8 CH + 0.8 CH + 0.8 CH + 0.8 CH (2)
5 1.0 6 0.8 8 0.8 13 0.8 14 0.8 15 0.8 16 0.8 
LOAD COMB 163 COMB - 1 DEAD + 0.8 ROOF LIVE + 0.8 WIND + 0.8 CH + 0.8 CH + 0.8 CH + 0.8 CH (3)
5 1.0 6 0.8 9 0.8 13 0.8 14 0.8 15 0.8 16 0.8 
LOAD COMB 164 COMB - 1 DEAD + 0.8 ROOF LIVE + 0.8 WIND + 0.8 CH + 0.8 CH + 0.8 CH + 0.8 CH (4)
5 1.0 6 0.8 10 0.8 13 0.8 14 0.8 15 0.8 16 0.8 
LOAD COMB 165 COMB - 1 DEAD + 0.8 ROOF LIVE + 0.8 WIND + 0.8 CH + 0.8 CH + 0.8 CH + 0.8 CH (5)
5 1.0 6 0.8 11 0.8 13 0.8 14 0.8 15 0.8 16 0.8 
LOAD COMB 166 COMB - 1 DEAD + 0.8 ROOF LIVE + 0.8 WIND + 0.8 CH + 0.8 CH + 0.8 CH + 0.8 CH (6)
5 1.0 6 0.8 12 0.8 13 0.8 14 0.8 15 0.8 16 0.8 
LOAD COMB 167 COMB - 1 DEAD + 0.8 ROOF LIVE + 0.8 SEISMIC-H + 0.8 CH + 0.8 CH + 0.8 CH + 0.8 CH (1)
5 1.0 6 0.8 1 0.8 13 0.8 14 0.8 15 0.8 16 0.8 
LOAD COMB 168 COMB - 1 DEAD + 0.8 ROOF LIVE + 0.8 SEISMIC-H + 0.8 CH + 0.8 CH + 0.8 CH + 0.8 CH (2)
5 1.0 6 0.8 2 0.8 13 0.8 14 0.8 15 0.8 16 0.8 
LOAD COMB 169 COMB - 1 DEAD + 0.8 ROOF LIVE + 0.8 SEISMIC-H + 0.8 CH + 0.8 CH + 0.8 CH + 0.8 CH (3)
5 1.0 6 0.8 3 0.8 13 0.8 14 0.8 15 0.8 16 0.8 
LOAD COMB 170 COMB - 1 DEAD + 0.8 ROOF LIVE + 0.8 SEISMIC-H + 0.8 CH + 0.8 CH + 0.8 CH + 0.8 CH (4)
5 1.0 6 0.8 4 0.8 13 0.8 14 0.8 15 0.8 16 0.8 
PERFORM ANALYSIS
*******************************************************************************
DEFINE ENVELOPE
101 TO 138 ENVELOPE 1 TYPE STRENGTH
139 TO 170 ENVELOPE 2 TYPE SERVICEABILITY
END DEFINE ENVELOPE
****************************************************************************
PARAMETER 1
CODE AISC UNIFIED 2022
METHOD ASD
STP 2 MEMB 1 TO 28 46 59 65 TO 92 110 123 129 TO 156 174 187 193 TO 220 238 -
251 257 TO 284 302 315 321 TO 348 366 379 385 TO 412 430 443 449 TO 476 494 -
507 513 TO 540 558 571 577 TO 604 622 635 641 TO 668 686 699 705 TO 732 750 -
763 769 TO 796 814 827 833 TO 860 878 891 897 TO 924 942 955
BEAM 1 MEMB 1 TO 960
RATIO 0.98 MEMB 1 TO 960
TRACK 1 MEMB 1 TO 960
FU 450000 MEMB 1 TO 28 46 59 65 TO 92 110 123 129 TO 156 174 187 193 TO 220 -
238 251 257 TO 284 302 315 321 TO 348 366 379 385 TO 412 430 443 449 TO 476 -
494 507 513 TO 540 558 571 577 TO 604 622 635 641 TO 668 686 699 705 TO 732 -
750 763 769 TO 796 814 827 833 TO 860 878 891 897 TO 924 942 955
FYLD 345000 MEMB 1 TO 28 46 59 65 TO 92 110 123 129 TO 156 174 187 -
193 TO 220 238 251 257 TO 284 302 315 321 TO 348 366 379 385 TO 412 430 443 -
449 TO 476 494 507 513 TO 540 558 571 577 TO 604 622 635 641 TO 668 686 699 -
705 TO 732 750 763 769 TO 796 814 827 833 TO 860 878 891 897 TO 924 942 955
************COLUMNS*********************************************************
LZ 11.2 MEMB 1 3 5 TO 16 65 67 69 TO 80 129 131 133 TO 144 193 195 -
197 TO 208 257 259 261 TO 272 321 323 325 TO 336 385 387 389 TO 400 449 451 -
453 TO 464 513 515 517 TO 528 577 579 581 TO 592 641 643 645 TO 656 705 707 -
709 TO 720 769 771 773 TO 784 833 835 837 TO 848 897 899 901 TO 912
LZ 7.62 MEMB 17 TO 28 81 TO 92 145 TO 156 209 TO 220 273 TO 284 337 TO 348 -
401 TO 412 465 TO 476 529 TO 540 593 TO 604 657 TO 668 721 TO 732 -
785 TO 796 849 TO 860 913 TO 924
KZ 1.2 MEMB 1 3 5 TO 28 65 67 69 TO 92 129 131 133 TO 156 193 195 197 TO 220 -
257 259 261 TO 284 321 323 325 TO 348 385 387 389 TO 412 449 451 453 TO 476 -
513 515 517 TO 540 577 579 581 TO 604 641 643 645 TO 668 705 707 709 TO 732 -
769 771 773 TO 796 833 835 837 TO 860 897 899 901 TO 924
LY 7.62 MEMB 1 3 5 TO 16 65 67 69 TO 80 129 131 133 TO 144 193 195 -
197 TO 208 257 259 261 TO 272 321 323 325 TO 336 385 387 389 TO 400 449 451 -
453 TO 464 513 515 517 TO 528 577 579 581 TO 592 641 643 645 TO 656 705 707 -
709 TO 720 769 771 773 TO 784 833 835 837 TO 848 897 899 901 TO 912
************RAFTERS*********************************************************
LZ 7.6 MEMB 2 4 66 68 130 132 194 196 258 260 322 324 386 388 450 452 514 -
516 578 580 642 644 706 708 770 772 834 836 898 900
LX 1.5 MEMB 2 4 66 68 130 132 194 196 258 260 322 324 386 388 450 452 514 -
516 578 580 642 644 706 708 770 772 834 836 898 900
LY 3 MEMB 2 4 66 68 130 132 194 196 258 260 322 324 386 388 450 452 514 516 -
578 580 642 644 706 708 770 772 834 836 898 900
UNB 1.5 MEMB 2 4 66 68 130 132 194 196 258 260 322 324 386 388 450 452 514 -
516 578 580 642 644 706 708 770 772 834 836 898 900
UNT 3 MEMB 2 4 66 68 130 132 194 196 258 260 322 324 386 388 450 452 514 516 -
578 580 642 644 706 708 770 772 834 836 898 900
********************LACING-MEMERS*********************************************
FYLD 250000 MEMB 29 TO 45 47 TO 58 60 TO 64 93 TO 109 111 TO 122 124 TO 128 -
157 TO 173 175 TO 186 188 TO 192 221 TO 237 239 TO 250 252 TO 256 -
285 TO 301 303 TO 314 316 TO 320 349 TO 365 367 TO 378 380 TO 384 -
413 TO 429 431 TO 442 444 TO 448 477 TO 493 495 TO 506 508 TO 512 -
541 TO 557 559 TO 570 572 TO 576 605 TO 621 623 TO 634 636 TO 640 -
669 TO 685 687 TO 698 700 TO 704 733 TO 749 751 TO 762 764 TO 768 -
797 TO 813 815 TO 826 828 TO 832 861 TO 877 879 TO 890 892 TO 896 -
925 TO 941 943 TO 954 956 TO 960
STP 1 MEMB 29 TO 45 47 TO 58 60 TO 64 93 TO 109 111 TO 122 124 TO 128 157 -
158 TO 173 175 TO 186 188 TO 192 221 TO 237 239 TO 250 252 TO 256 285 TO 301 -
303 TO 314 316 TO 320 349 TO 365 367 TO 378 380 TO 384 413 TO 429 -
431 TO 442 444 TO 448 477 TO 493 495 TO 506 508 TO 512 541 TO 557 -
559 TO 570 572 TO 576 605 TO 621 623 TO 634 636 TO 640 669 TO 685 -
687 TO 698 700 TO 704 733 TO 749 751 TO 762 764 TO 768 797 TO 813 -
815 TO 826 828 TO 832 861 TO 877 879 TO 890 892 TO 896 925 TO 941 -
943 TO 954 956 TO 960
MAIN 250 MEMB 29 TO 45 47 TO 58 60 TO 64 93 TO 109 111 TO 122 124 TO 128 157 -
158 TO 173 175 TO 186 188 TO 192 221 TO 237 239 TO 250 252 TO 256 285 TO 301 -
303 TO 314 316 TO 320 349 TO 365 367 TO 378 380 TO 384 413 TO 429 -
431 TO 442 444 TO 448 477 TO 493 495 TO 506 508 TO 512 541 TO 557 -
559 TO 570 572 TO 576 605 TO 621 623 TO 634 636 TO 640 669 TO 685 -
687 TO 698 700 TO 704 733 TO 749 751 TO 762 764 TO 768 797 TO 813 -
815 TO 826 828 TO 832 861 TO 877 879 TO 890 892 TO 896 925 TO 941 -
943 TO 954 956 TO 960
TMAIN 350 MEMB 29 TO 45 47 TO 58 60 TO 64 93 TO 109 111 TO 122 124 TO 128 -
157 TO 173 175 TO 186 188 TO 192 221 TO 237 239 TO 250 252 TO 256 -
285 TO 301 303 TO 314 316 TO 320 349 TO 365 367 TO 378 380 TO 384 -
413 TO 429 431 TO 442 444 TO 448 477 TO 493 495 TO 506 508 TO 512 -
541 TO 557 559 TO 570 572 TO 576 605 TO 621 623 TO 634 636 TO 640 -
669 TO 685 687 TO 698 700 TO 704 733 TO 749 751 TO 762 764 TO 768 -
797 TO 813 815 TO 826 828 TO 832 861 TO 877 879 TO 890 892 TO 896 -
925 TO 941 943 TO 954 956 TO 960
KY 0.5 MEMB 29 TO 45 47 TO 58 60 TO 64 93 TO 109 111 TO 122 124 TO 128 157 -
158 TO 173 175 TO 186 188 TO 192 221 TO 237 239 TO 250 252 TO 256 285 TO 301 -
303 TO 314 316 TO 320 349 TO 365 367 TO 378 380 TO 384 413 TO 429 -
431 TO 442 444 TO 448 477 TO 493 495 TO 506 508 TO 512 541 TO 557 -
559 TO 570 572 TO 576 605 TO 621 623 TO 634 636 TO 640 669 TO 685 -
687 TO 698 700 TO 704 733 TO 749 751 TO 762 764 TO 768 797 TO 813 -
815 TO 826 828 TO 832 861 TO 877 879 TO 890 892 TO 896 925 TO 941 -
943 TO 954 956 TO 960
KZ 0.5 MEMB 29 TO 45 47 TO 58 60 TO 64 93 TO 109 111 TO 122 124 TO 128 157 -
158 TO 173 175 TO 186 188 TO 192 221 TO 237 239 TO 250 252 TO 256 285 TO 301 -
303 TO 314 316 TO 320 349 TO 365 367 TO 378 380 TO 384 413 TO 429 -
431 TO 442 444 TO 448 477 TO 493 495 TO 506 508 TO 512 541 TO 557 -
559 TO 570 572 TO 576 605 TO 621 623 TO 634 636 TO 640 669 TO 685 -
687 TO 698 700 TO 704 733 TO 749 751 TO 762 764 TO 768 797 TO 813 -
815 TO 826 828 TO 832 861 TO 877 879 TO 890 892 TO 896 925 TO 941 -
943 TO 954 956 TO 960
********************BRACING*********************************************
FYLD 250000 MEMB 1005 TO 1009 1012 TO 1029 1033 TO 1067
STP 1 MEMB 1005 TO 1009 1012 TO 1029 1033 TO 1067
MAIN 250 MEMB 1005 TO 1009 1012 TO 1029 1033 TO 1067
TMAIN 400 MEMB 1005 TO 1009 1012 TO 1029 1033 TO 1067
KY 0.85 MEMB 1005 TO 1009 1012 TO 1029 1033 TO 1067
KZ 0.85 MEMB 1005 TO 1009 1012 TO 1029 1033 TO 1067
CHECK CODE MEMB 1 TO 960 1005 TO 1009 1012 TO 1029 1033 TO 1067
STEEL MEMBER TAKE OFF LIST 1 TO 960
STEEL MEMBER TAKE OFF LIST 1005 TO 1009 1012 TO 1029 1033 TO 1067
LOAD LIST ENV 1
FINISH
