STAAD SPACE
START JOB INFORMATION
ENGINEER DATE 10-May-25
END JOB INFORMATION
INPUT WIDTH 79
SET NL 100
UNIT METER KN
JOINT COORDINATES
1 0 0 0; 2 20.75 0 0; 3 41.5001 0 0; 4 0 3.50001 0; 5 20.75 3.50001 0;
6 41.5001 3.50001 0; 7 0 4.50001 0; 8 20.75 4.50001 0; 9 41.5001 4.50001 0;
10 0 7.00001 0; 11 41.5001 7.00001 0; 12 20.75 9.10002 0; 13 4.27815 7.43298 0;
14 37.2219 7.43298 0; 15 11.2426 8.13782 0; 16 30.2575 8.13782 0;
17 18.207 8.84265 0; 18 23.2931 8.84265 0; 19 0.700001 3.50001 0;
20 0.700001 4.50001 0; 21 21.45 3.50001 0; 22 21.45 4.50001 0;
23 20.05 3.50001 0; 24 20.05 4.50001 0; 25 40.8001 3.50001 0;
26 40.8001 4.50001 0; 28 0 7.00001 7.50002; 29 0 7.00001 15; 30 0 7.00001 22.5;
31 0 0 7.50002; 32 0 3.50001 7.50002; 33 0 4.50001 7.50002;
34 41.5001 0 7.50002; 35 41.5001 3.50001 7.50002; 36 41.5001 4.50001 7.50002;
37 41.5001 7.00001 7.50002; 38 20.75 0 7.50002; 39 20.75 3.50001 7.50002;
40 20.75 4.50001 7.50002; 41 20.75 9.10002 7.50002; 42 4.27815 7.43298 7.50002;
43 37.2219 7.43298 7.50002; 44 11.2426 8.13782 7.50002;
45 30.2575 8.13782 7.50002; 46 18.207 8.84265 7.50002;
47 23.2931 8.84265 7.50002; 48 0.700001 4.50001 7.50002;
49 20.05 4.50001 7.50002; 50 21.45 4.50001 7.50002; 51 40.8001 4.50001 7.50002;
52 0.700001 3.50001 7.50002; 53 20.05 3.50001 7.50002;
54 21.45 3.50001 7.50002; 55 40.8001 3.50001 7.50002; 56 0 0 15;
57 0 3.50001 15; 58 0 4.50001 15; 59 41.5001 0 15; 60 41.5001 3.50001 15;
61 41.5001 4.50001 15; 62 41.5001 7.00001 15; 63 20.75 0 15;
# ... 147 like lines cut
MEMBER INCIDENCES
1 1 4; 2 4 7; 3 7 10; 4 3 6; 5 6 9; 6 9 11; 7 2 5; 8 5 8; 9 8 12; 10 10 13;
11 11 14; 12 13 15; 13 14 16; 14 15 17; 15 16 18; 16 17 12; 17 18 12; 18 7 20;
19 24 8; 20 8 22; 21 26 9; 22 4 19; 23 23 5; 24 5 21; 25 25 6; 26 31 32;
27 32 33; 28 33 28; 29 34 35; 30 35 36; 31 36 37; 32 38 39; 33 39 40; 34 40 41;
35 28 42; 36 37 43; 37 42 44; 38 43 45; 39 44 46; 40 45 47; 41 46 41; 42 47 41;
43 33 48; 44 49 40; 45 40 50; 46 51 36; 47 32 52; 48 53 39; 49 39 54; 50 55 35;
51 56 57; 52 57 58; 53 58 29; 54 59 60; 55 60 61; 56 61 62; 57 63 64; 58 64 65;
59 65 66; 60 29 67; 61 62 68; 62 67 69; 63 68 70; 64 69 71; 65 70 72; 66 71 66;
67 72 66; 68 58 73; 69 74 65; 70 65 75; 71 76 61; 72 57 77; 73 78 64; 74 64 79;
75 80 60; 76 81 82; 77 82 83; 78 83 30; 79 84 85; 80 85 86; 81 86 87; 82 88 89;
83 89 90; 84 90 91; 85 30 92; 86 87 93; 87 92 94; 88 93 95; 89 94 96; 90 95 97;
91 96 91; 92 97 91; 93 83 98; 94 99 90; 95 90 100; 96 101 86; 97 82 102;
98 103 89; 99 89 104; 100 105 85; 101 10 28; 102 28 29; 103 29 30; 105 33 58;
107 13 42; 108 42 67; 109 67 92; 110 15 44; 111 44 69; 112 69 94; 113 17 46;
114 46 71; 115 71 96; 116 12 41; 117 41 66; 118 66 91; 119 18 47; 120 47 72;
121 72 97; 122 16 45; 123 45 70; 124 70 95; 125 14 43; 126 43 68; 127 68 93;
128 11 37; 129 37 62; 130 62 87; 132 36 61; 133 29 42; 134 28 67; 135 67 44;
136 42 69; 137 69 46; 138 44 71; 139 71 41; 140 46 66; 141 66 47; 142 41 72;
143 72 45; 144 47 70; 145 70 43; 146 45 68; 147 68 37; 148 43 62; 149 31 58;
150 56 33; 151 33 29; 152 58 28; 153 40 106; 154 65 41; 155 40 66; 156 59 36;
# ... 88 like lines cut
DEFINE MATERIAL START
ISOTROPIC STEEL
E 1.99947e+08
POISSON 0.3
DENSITY 76.8191
ALPHA 6.5e-06
DAMP 0.03
G 7.7221e+07
TYPE STEEL
STRENGTH RY 1.5 RT 1.2
END DEFINE MATERIAL
MEMBER PROPERTY
1 2 4 5 26 27 29 30 51 52 54 55 76 77 79 80 164 165 167 168 189 190 192 193 -
214 215 217 218 239 240 242 243 333 334 336 337 367 368 370 371 392 393 395 -
396 417 418 420 421 442 443 445 446 536 537 539 -
540 TAPERED 0.624 0.005 0.624 0.24 0.012
3 6 28 31 53 56 78 81 166 169 191 194 216 219 241 244 335 338 369 372 394 -
397 419 422 444 447 538 541 TAPERED 0.624 0.005 0.624 0.24 0.012
7 TO 9 32 TO 34 57 TO 59 82 TO 84 170 TO 172 195 TO 197 220 TO 222 -
245 TO 247 339 TO 341 373 TO 375 398 TO 400 423 TO 425 448 TO 450 -
542 TO 544 TAPERED 0.412 0.005 0.412 0.225 0.012
10 11 35 36 60 61 85 86 173 174 198 199 223 224 248 249 342 343 376 377 401 -
402 426 427 451 452 545 546 TAPERED 0.766 0.005 0.466 0.185 0.008
12 13 37 38 62 63 87 88 175 176 200 201 225 226 250 251 344 345 378 379 403 -
404 428 429 453 454 547 548 TAPERED 0.466 0.005 0.866 0.2 0.008
14 15 39 40 64 65 89 90 177 178 202 203 227 228 252 253 346 347 380 381 405 -
406 430 431 455 456 549 550 TAPERED 0.866 0.005 0.416 0.2 0.008
16 17 41 42 66 67 91 92 179 180 204 205 229 230 254 255 348 349 382 383 407 -
408 432 433 457 458 551 552 TAPERED 0.416 0.005 0.766 0.16 0.008
18 TO 21 43 TO 46 68 TO 71 93 TO 96 181 TO 184 206 TO 209 231 TO 234 -
256 TO 259 350 TO 353 384 TO 387 409 TO 412 434 TO 437 459 TO 462 -
553 TO 556 580 581 599 600 613 614 627 628 641 -
642 TAPERED 0.624 0.008 0.624 0.25 0.012
22 TO 25 47 TO 50 72 TO 75 97 TO 100 185 TO 188 210 TO 213 235 TO 238 260 -
261 TO 263 354 TO 357 388 TO 391 413 TO 416 438 TO 441 463 TO 466 557 TO 560 -
582 583 601 602 615 616 629 630 643 -
644 TAPERED 0.216 0.005 0.216 0.15 0.005
MEMBER PROPERTY COLDFORMED INDIAN
101 103 107 109 110 112 113 115 116 118 119 121 122 124 125 127 128 130 264 -
265 TO 290 358 TO 366 467 TO 493 561 TO 569 584 TO 588 645 TO 654 660 662 -
664 666 668 TABLE ST 200ZS60X2
MEMBER PROPERTY INDIAN
102 105 108 111 114 117 120 123 126 129 132 291 TO 299 316 317 494 TO 502 -
519 520 661 663 665 667 669 678 683 TABLE ST TUB89893.6
133 TO 152 154 TO 159 300 TO 315 318 TO 321 323 TO 328 503 TO 518 521 TO 524 -
526 TO 531 670 TO 677 679 TO 682 684 TO 687 TABLE ST TUB1101104.5
MEMBER PROPERTY
153 160 161 322 329 330 525 532 533 TAPERED 0.266 0.005 0.266 0.15 0.006
162 163 331 332 534 535 TAPERED 0.26 0.005 0.26 0.15 0.005
573 TO 575 592 TO 594 606 TO 608 620 TO 622 634 TO 635 -
636 TAPERED 0.62 0.005 0.62 0.185 0.01
570 TO 572 589 TO 591 603 TO 605 617 TO 619 631 TO 632 -
633 TAPERED 0.62 0.005 0.62 0.185 0.01
579 598 612 626 640 TAPERED 0.416 0.005 0.812 0.16 0.008
578 597 611 625 639 TAPERED 0.566 0.005 0.416 0.185 0.008
577 596 610 624 638 TAPERED 0.416 0.005 0.566 0.185 0.008
576 595 609 623 637 TAPERED 0.716 0.005 0.416 0.175 0.008
CONSTANTS
MATERIAL STEEL ALL
SUPPORTS
1 TO 3 31 34 38 56 59 63 81 84 88 113 116 120 138 141 145 163 166 170 188 -
191 195 215 219 223 241 245 249 267 271 275 293 297 301 319 323 327 347 351 -
355 374 378 392 396 406 410 420 424 434 438 FIXED BUT MX
MEMBER RELEASE
153 161 322 330 525 533 START MZ
153 161 322 330 525 533 END MZ
MEMBER TRUSS 
102 105 108 111 114 117 120 123 126 129 132 TO 152 154 TO 159 291 TO 321 323 -
324 TO 328 494 TO 524 526 TO 531 661 663 665 667 669 TO 687
DEFINE IS1893 2016 LOAD
ZONE 0.16 RF 4 I 1 SS 3 ST 3 DM 0.05
MEMBER WEIGHT
10 TO 17 35 TO 42 60 TO 67 85 TO 92 173 TO 180 198 TO 205 223 TO 230 -
248 TO 255 342 TO 349 376 TO 383 401 TO 408 426 TO 433 451 TO 458 -
545 TO 552 576 TO 579 595 TO 598 609 TO 612 623 TO 626 637 TO 639 -
640 UNI 0.75 0 0
10 TO 17 35 TO 42 60 TO 67 85 TO 92 173 TO 180 198 TO 205 223 TO 230 -
248 TO 255 342 TO 349 376 TO 383 401 TO 408 426 TO 433 451 TO 458 -
545 TO 552 576 TO 579 595 TO 598 609 TO 612 623 TO 626 637 TO 639 -
640 UNI 4.3 0 0
10 TO 17 35 TO 42 60 TO 67 85 TO 92 173 TO 180 198 TO 205 223 TO 230 -
248 TO 255 342 TO 349 376 TO 383 401 TO 408 426 TO 433 451 TO 458 -
545 TO 552 576 TO 579 595 TO 598 609 TO 612 623 TO 626 637 TO 639 -
640 UNI 1.5 0 0
22 TO 25 47 TO 50 72 TO 75 97 TO 100 185 TO 188 210 TO 213 235 TO 238 260 -
261 TO 263 354 TO 357 388 TO 391 413 TO 416 438 TO 441 463 TO 466 557 TO 560 -
582 583 601 602 615 616 629 630 643 644 UNI 1.2 0 0
LOAD 1 LOADTYPE Seismic-H  TITLE EQ+X
1893 LOAD X 1
PERFORM ANALYSIS
CHANGE
*************************************************
LOAD 2 LOADTYPE Seismic-H  TITLE EQ-X
1893 LOAD X -1
PERFORM ANALYSIS
CHANGE
************************************************
LOAD 3 LOADTYPE Seismic-H  TITLE EQ+Z
1893 LOAD Z 1
PERFORM ANALYSIS
CHANGE
************************************************
LOAD 4 LOADTYPE Seismic-H  TITLE EQ-Z
1893 LOAD Z -1
PERFORM ANALYSIS
CHANGE
************************************************
LOAD 5 LOADTYPE Dead  TITLE DL
SELFWEIGHT Y -1 
MEMBER LOAD
10 TO 17 35 TO 42 60 TO 67 85 TO 92 173 TO 180 198 TO 205 223 TO 230 -
248 TO 255 342 TO 349 376 TO 383 401 TO 408 426 TO 433 451 TO 458 -
545 TO 552 576 TO 579 595 TO 598 609 TO 612 623 TO 626 637 TO 639 -
640 UNI GY -0.75
22 TO 25 47 TO 50 72 TO 75 97 TO 100 185 TO 188 210 TO 213 235 TO 238 260 -
261 TO 263 354 TO 357 388 TO 391 413 TO 416 438 TO 441 463 TO 466 557 TO 560 -
582 583 601 602 615 616 629 630 643 644 UNI GY -1.2
************************************************
LOAD 6 LOADTYPE Roof Live  TITLE LL
MEMBER LOAD
10 TO 17 35 TO 42 60 TO 67 85 TO 92 173 TO 180 198 TO 205 223 TO 230 -
248 TO 255 342 TO 349 376 TO 383 401 TO 408 426 TO 433 451 TO 458 -
545 TO 552 576 TO 579 595 TO 598 609 TO 612 623 TO 626 637 TO 639 -
640 UNI GY -4.3
************************************************
LOAD 7 LOADTYPE Dead  TITLE CL
MEMBER LOAD
10 TO 17 35 TO 42 60 TO 67 85 TO 92 173 TO 180 198 TO 205 223 TO 230 -
248 TO 255 342 TO 349 376 TO 383 401 TO 408 426 TO 433 451 TO 458 -
545 TO 552 576 TO 579 595 TO 598 609 TO 612 623 TO 626 637 TO 639 -
640 UNI GY -1.2
***************************************************
LOAD 8 LOADTYPE Wind  TITLE WLP
MEMBER LOAD
1 TO 3 26 TO 28 51 TO 53 76 TO 78 164 TO 166 189 TO 191 214 TO 216 -
239 TO 241 333 TO 335 367 TO 369 392 TO 394 417 TO 419 442 TO 444 -
536 TO 538 UNI GX 1.02
10 12 14 16 35 37 39 41 60 62 64 66 85 87 89 91 173 175 177 179 198 200 202 -
204 223 225 227 229 248 250 252 254 342 344 346 348 376 378 380 382 401 403 -
405 407 426 428 430 432 451 453 455 457 545 547 549 551 UNI Y 6.93
11 13 15 17 36 38 40 42 61 63 65 67 86 88 90 92 174 176 178 180 199 201 203 -
205 224 226 228 230 249 251 253 255 343 345 347 349 377 379 381 383 402 404 -
406 408 427 429 431 433 452 454 456 458 546 548 550 552 UNI Y 4.96
4 TO 6 29 TO 31 54 TO 56 79 TO 81 167 TO 169 192 TO 194 217 TO 219 -
242 TO 244 336 TO 338 370 TO 372 395 TO 397 420 TO 422 445 TO 447 -
539 TO 541 UNI GX 3.71
573 TO 575 592 TO 594 606 TO 608 620 TO 622 634 TO 636 UNI GX 0.96
576 TO 579 595 TO 598 609 TO 612 623 TO 626 637 TO 640 UNI Y 7.24
570 TO 572 589 TO 591 603 TO 605 617 TO 619 631 TO 633 UNI GX 3.62
****************************************************
LOAD 9 LOADTYPE Wind  TITLE WLS
MEMBER LOAD
1 TO 3 26 TO 28 51 TO 53 76 TO 78 164 TO 166 189 TO 191 214 TO 216 -
239 TO 241 333 TO 335 367 TO 369 392 TO 394 417 TO 419 442 TO 444 -
536 TO 538 UNI GX 5.94
10 12 14 16 35 37 39 41 60 62 64 66 85 87 89 91 173 175 177 179 198 200 202 -
204 223 225 227 229 248 250 252 254 342 344 346 348 376 378 380 382 401 403 -
405 407 426 428 430 432 451 453 455 457 545 547 549 551 UNI Y 1.98
11 13 15 17 36 38 40 42 61 63 65 67 86 88 90 92 174 176 178 180 199 201 203 -
205 224 226 228 230 249 251 253 255 343 345 347 349 377 379 381 383 402 404 -
406 408 427 429 431 433 452 454 456 458 546 548 550 552 UNI Y -0.5
4 TO 6 29 TO 31 54 TO 56 79 TO 81 167 TO 169 192 TO 194 217 TO 219 -
242 TO 244 336 TO 338 370 TO 372 395 TO 397 420 TO 422 445 TO 447 -
539 TO 541 UNI GX 1.24
573 TO 575 592 TO 594 606 TO 608 620 TO 622 634 TO 636 UNI GX 5.79
576 TO 579 595 TO 598 609 TO 612 623 TO 626 637 TO 640 UNI Y 2.31
570 TO 572 589 TO 591 603 TO 605 617 TO 619 631 TO 633 UNI GX 1.21
****************************************************
LOAD 10 LOADTYPE Wind  TITLE WRP
MEMBER LOAD
1 TO 3 26 TO 28 51 TO 53 76 TO 78 164 TO 166 189 TO 191 214 TO 216 -
239 TO 241 333 TO 335 367 TO 369 392 TO 394 417 TO 419 442 TO 444 -
536 TO 538 UNI GX -3.71
10 12 14 16 35 37 39 41 60 62 64 66 85 87 89 91 173 175 177 179 198 200 202 -
204 223 225 227 229 248 250 252 254 342 344 346 348 376 378 380 382 401 403 -
405 407 426 428 430 432 451 453 455 457 545 547 549 551 UNI Y 4.96
11 13 15 17 36 38 40 42 61 63 65 67 86 88 90 92 174 176 178 180 199 201 203 -
205 224 226 228 230 249 251 253 255 343 345 347 349 377 379 381 383 402 404 -
406 408 427 429 431 433 452 454 456 458 546 548 550 552 UNI Y 6.93
4 TO 6 29 TO 31 54 TO 56 79 TO 81 167 TO 169 192 TO 194 217 TO 219 -
242 TO 244 336 TO 338 370 TO 372 395 TO 397 420 TO 422 445 TO 447 -
539 TO 541 UNI GX -1.02
573 TO 575 592 TO 594 606 TO 608 620 TO 622 634 TO 636 UNI GX -3.62
576 TO 579 595 TO 598 609 TO 612 623 TO 626 637 TO 640 UNI Y 7.24
570 TO 572 589 TO 591 603 TO 605 617 TO 619 631 TO 633 UNI GX -0.96
****************************************************
LOAD 11 LOADTYPE Wind  TITLE WRS
MEMBER LOAD
1 TO 3 26 TO 28 51 TO 53 76 TO 78 164 TO 166 189 TO 191 214 TO 216 -
239 TO 241 333 TO 335 367 TO 369 392 TO 394 417 TO 419 442 TO 444 -
536 TO 538 UNI GX -1.24
10 12 14 16 35 37 39 41 60 62 64 66 85 87 89 91 173 175 177 179 198 200 202 -
204 223 225 227 229 248 250 252 254 342 344 346 348 376 378 380 382 401 403 -
405 407 426 428 430 432 451 453 455 457 545 547 549 551 UNI Y 0.5
11 13 15 17 36 38 40 42 61 63 65 67 86 88 90 92 174 176 178 180 199 201 203 -
205 224 226 228 230 249 251 253 255 343 345 347 349 377 379 381 383 402 404 -
406 408 427 429 431 433 452 454 456 458 546 548 550 552 UNI Y 1.98
4 TO 6 29 TO 31 54 TO 56 79 TO 81 167 TO 169 192 TO 194 217 TO 219 -
242 TO 244 336 TO 338 370 TO 372 395 TO 397 420 TO 422 445 TO 447 -
539 TO 541 UNI GX -5.94
573 TO 575 592 TO 594 606 TO 608 620 TO 622 634 TO 636 UNI GX -1.21
576 TO 579 595 TO 598 609 TO 612 623 TO 626 637 TO 640 UNI Y 2.31
570 TO 572 589 TO 591 603 TO 605 617 TO 619 631 TO 633 UNI GX -5.79
*****************************************************
LOAD 12 LOADTYPE Wind  TITLE WPLP
MEMBER LOAD
1 TO 3 26 TO 28 51 TO 53 76 TO 78 164 TO 166 189 TO 191 214 TO 216 -
239 TO 241 333 TO 335 367 TO 369 392 TO 394 417 TO 419 442 TO 444 -
536 TO 538 UNI GX -4.95
10 12 14 16 35 37 39 41 60 62 64 66 85 87 89 91 173 175 177 179 198 200 202 -
204 223 225 227 229 248 250 252 254 342 344 346 348 376 378 380 382 401 403 -
405 407 426 428 430 432 451 453 455 457 545 547 549 551 UNI Y 6.44
11 13 15 17 36 38 40 42 61 63 65 67 86 88 90 92 174 176 178 180 199 201 203 -
205 224 226 228 230 249 251 253 255 343 345 347 349 377 379 381 383 402 404 -
406 408 427 429 431 433 452 454 456 458 546 548 550 552 UNI Y 4.46
4 TO 6 29 TO 31 54 TO 56 79 TO 81 167 TO 169 192 TO 194 217 TO 219 -
242 TO 244 336 TO 338 370 TO 372 395 TO 397 420 TO 422 445 TO 447 -
539 TO 541 UNI GX 4.95
573 TO 575 592 TO 594 606 TO 608 620 TO 622 634 TO 636 UNI GX -4.82
576 TO 579 595 TO 598 609 TO 612 623 TO 626 637 TO 640 UNI Y 7.24
570 TO 572 589 TO 591 603 TO 605 617 TO 619 631 TO 633 UNI GX 4.82
******************************************************
LOAD 13 LOADTYPE Wind  TITLE WPLS
MEMBER LOAD
1 TO 3 26 TO 28 51 TO 53 76 TO 78 164 TO 166 189 TO 191 214 TO 216 -
239 TO 241 333 TO 335 367 TO 369 392 TO 394 417 TO 419 442 TO 444 -
536 TO 538 UNI GX -0.001
10 12 14 16 35 37 39 41 60 62 64 66 85 87 89 91 173 175 177 179 198 200 202 -
204 223 225 227 229 248 250 252 254 342 344 346 348 376 378 380 382 401 403 -
405 407 426 428 430 432 451 453 455 457 545 547 549 551 UNI Y 1.49
11 13 15 17 36 38 40 42 61 63 65 67 86 88 90 92 174 176 178 180 199 201 203 -
205 224 226 228 230 249 251 253 255 343 345 347 349 377 379 381 383 402 404 -
406 408 427 429 431 433 452 454 456 458 546 548 550 552 UNI Y 0.5
4 TO 6 29 TO 31 54 TO 56 79 TO 81 167 TO 169 192 TO 194 217 TO 219 -
242 TO 244 336 TO 338 370 TO 372 395 TO 397 420 TO 422 445 TO 447 -
539 TO 541 UNI GX 0.001
******************************************************
LOAD 14 LOADTYPE Wind  TITLE WPRP
MEMBER LOAD
1 TO 3 26 TO 28 51 TO 53 76 TO 78 164 TO 166 189 TO 191 214 TO 216 -
239 TO 241 333 TO 335 367 TO 369 392 TO 394 417 TO 419 442 TO 444 -
536 TO 538 UNI GX -4.95
10 12 14 16 35 37 39 41 60 62 64 66 85 87 89 91 173 175 177 179 198 200 202 -
204 223 225 227 229 248 250 252 254 342 344 346 348 376 378 380 382 401 403 -
405 407 426 428 430 432 451 453 455 457 545 547 549 551 UNI Y 6.44
11 13 15 17 36 38 40 42 61 63 65 67 86 88 90 92 174 176 178 180 199 201 203 -
205 224 226 228 230 249 251 253 255 343 345 347 349 377 379 381 383 402 404 -
406 408 427 429 431 433 452 454 456 458 546 548 550 552 UNI Y 4.46
4 TO 6 29 TO 31 54 TO 56 79 TO 81 167 TO 169 192 TO 194 217 TO 219 -
242 TO 244 336 TO 338 370 TO 372 395 TO 397 420 TO 422 445 TO 447 -
539 TO 541 UNI GX 4.95
573 TO 575 592 TO 594 606 TO 608 620 TO 622 634 TO 636 UNI GX -4.82
576 TO 579 595 TO 598 609 TO 612 623 TO 626 637 TO 640 UNI Y 7.24
570 TO 572 589 TO 591 603 TO 605 617 TO 619 631 TO 633 UNI GX 4.82
******************************************************
LOAD 15 LOADTYPE Wind  TITLE WPRS
MEMBER LOAD
1 TO 3 26 TO 28 51 TO 53 76 TO 78 164 TO 166 189 TO 191 214 TO 216 -
239 TO 241 333 TO 335 367 TO 369 392 TO 394 417 TO 419 442 TO 444 -
536 TO 538 UNI GX -0.001
10 12 14 16 35 37 39 41 60 62 64 66 85 87 89 91 173 175 177 179 198 200 202 -
204 223 225 227 229 248 250 252 254 342 344 346 348 376 378 380 382 401 403 -
405 407 426 428 430 432 451 453 455 457 545 547 549 551 UNI Y 1.49
11 13 15 17 36 38 40 42 61 63 65 67 86 88 90 92 174 176 178 180 199 201 203 -
205 224 226 228 230 249 251 253 255 343 345 347 349 377 379 381 383 402 404 -
406 408 427 429 431 433 452 454 456 458 546 548 550 552 UNI Y 0.5
4 TO 6 29 TO 31 54 TO 56 79 TO 81 167 TO 169 192 TO 194 217 TO 219 -
242 TO 244 336 TO 338 370 TO 372 395 TO 397 420 TO 422 445 TO 447 -
539 TO 541 UNI GX 0.001
******************************************************
LOAD 16 LOADTYPE Crane Hook  TITLE CL1
JOINT LOAD
384 402 416 430 444 FX 3.2 FY -25.6
385 403 417 431 445 FX 3.2 FY -80
20 48 73 98 130 155 180 205 233 259 285 311 337 365 FX 6.4 FY -51.2
22 50 75 100 132 157 182 207 235 261 287 313 339 367 FX 6.4 FY -51.2
24 49 74 99 131 156 181 206 234 260 286 312 338 366 FX 6.4 FY -160
26 51 76 101 133 158 183 208 236 262 288 314 340 368 FX 6.4 FY -160
******************************************************
LOAD 17 LOADTYPE Crane Hook  TITLE CL2
JOINT LOAD
384 402 416 430 444 FX -3.2 FY -80
385 403 417 431 445 FX -3.2 FY -25.6
24 49 74 99 131 156 181 206 234 260 286 312 338 366 FX -6.4 FY -51.2
26 51 76 101 133 158 183 208 236 262 288 314 340 368 FX -6.4 FY -51.2
20 48 73 98 130 155 180 205 233 259 285 311 337 365 FX -6.4 FY -160
22 50 75 100 132 157 182 207 235 261 287 313 339 367 FX -6.4 FY -160
******************************************************
LOAD 18 LOADTYPE Crane Hook  TITLE CL3
JOINT LOAD
385 403 417 431 445 FX 3.2 FY -25.6
384 402 416 430 444 FX 3.2 FY -80
20 48 73 98 130 155 180 205 233 259 285 311 337 365 FX 6.4 FY -51.2
24 49 74 99 131 156 181 206 234 260 286 312 338 366 FX 6.4 FY -160
26 51 76 101 133 158 183 208 236 262 288 314 340 368 FX -6.4 FY -51.2
22 50 75 100 132 157 182 207 235 261 287 313 339 367 FX -6.4 FY -160
*******************************************************
LOAD 19 LOADTYPE Crane Hook  TITLE CL4
JOINT LOAD
385 403 417 431 445 FX -3.2 FY -80
384 402 416 430 444 FX -3.2 FY -25.6
24 49 74 99 131 156 181 206 234 260 286 312 338 366 FX -6.4 FY -51.2
20 48 73 98 130 155 180 205 233 259 285 311 337 365 FX -6.4 FY -160
22 50 75 100 132 157 182 207 235 261 287 313 339 367 FX 6.4 FY -51.2
26 51 76 101 133 158 183 208 236 262 288 314 340 368 FX 6.4 FY -160
*******************************************************
************LOAD COMBINATIONS***************************
LOAD COMB 101 COMB - 1 DEAD + 1 DEAD + 1 ROOF LIVE
5 1.0 7 1.0 6 1.0 
LOAD COMB 102 COMB - 1 DEAD + 1 DEAD + 1 WIND (1)
5 1.0 7 1.0 8 1.0 
LOAD COMB 103 COMB - 1 DEAD + 1 DEAD + 1 WIND (2)
5 1.0 7 1.0 9 1.0 
LOAD COMB 104 COMB - 1 DEAD + 1 DEAD + 1 WIND (3)
5 1.0 7 1.0 10 1.0 
LOAD COMB 105 COMB - 1 DEAD + 1 DEAD + 1 WIND (4)
5 1.0 7 1.0 11 1.0 
LOAD COMB 106 COMB - 1 DEAD + 1 DEAD + 1 WIND (5)
5 1.0 7 1.0 12 1.0 
LOAD COMB 107 COMB - 1 DEAD + 1 DEAD + 1 WIND (6)
5 1.0 7 1.0 13 1.0 
LOAD COMB 108 COMB - 1 DEAD + 1 DEAD + 1 WIND (7)
5 1.0 7 1.0 14 1.0 
LOAD COMB 109 COMB - 1 DEAD + 1 DEAD + 1 WIND (8)
5 1.0 7 1.0 15 1.0 
LOAD COMB 110 COMB - 1 DEAD + 1 DEAD + 0.75 ROOF LIVE + 0.75 WIND (1)
5 1.0 7 1.0 6 0.75 8 0.75 
LOAD COMB 111 COMB - 1 DEAD + 1 DEAD + 0.75 ROOF LIVE + 0.75 WIND (2)
5 1.0 7 1.0 6 0.75 9 0.75 
LOAD COMB 112 COMB - 1 DEAD + 1 DEAD + 0.75 ROOF LIVE + 0.75 WIND (3)
5 1.0 7 1.0 6 0.75 10 0.75 
LOAD COMB 113 COMB - 1 DEAD + 1 DEAD + 0.75 ROOF LIVE + 0.75 WIND (4)
5 1.0 7 1.0 6 0.75 11 0.75 
LOAD COMB 114 COMB - 1 DEAD + 1 DEAD + 0.75 ROOF LIVE + 0.75 WIND (5)
5 1.0 7 1.0 6 0.75 12 0.75 
LOAD COMB 115 COMB - 1 DEAD + 1 DEAD + 0.75 ROOF LIVE + 0.75 WIND (6)
5 1.0 7 1.0 6 0.75 13 0.75 
LOAD COMB 116 COMB - 1 DEAD + 1 DEAD + 0.75 ROOF LIVE + 0.75 WIND (7)
5 1.0 7 1.0 6 0.75 14 0.75 
LOAD COMB 117 COMB - 1 DEAD + 1 DEAD + 0.75 ROOF LIVE + 0.75 WIND (8)
5 1.0 7 1.0 6 0.75 15 0.75 
LOAD COMB 118 COMB - 0.6 DEAD + 0.6 DEAD + 1 WIND (1)
5 0.6 7 0.6 8 1.0 
LOAD COMB 119 COMB - 0.6 DEAD + 0.6 DEAD + 1 WIND (2)
5 0.6 7 0.6 9 1.0 
LOAD COMB 120 COMB - 0.6 DEAD + 0.6 DEAD + 1 WIND (3)
5 0.6 7 0.6 10 1.0 
LOAD COMB 121 COMB - 0.6 DEAD + 0.6 DEAD + 1 WIND (4)
5 0.6 7 0.6 11 1.0 
LOAD COMB 122 COMB - 0.6 DEAD + 0.6 DEAD + 1 WIND (5)
5 0.6 7 0.6 12 1.0 
LOAD COMB 123 COMB - 0.6 DEAD + 0.6 DEAD + 1 WIND (6)
5 0.6 7 0.6 13 1.0 
LOAD COMB 124 COMB - 0.6 DEAD + 0.6 DEAD + 1 WIND (7)
5 0.6 7 0.6 14 1.0 
LOAD COMB 125 COMB - 0.6 DEAD + 0.6 DEAD + 1 WIND (8)
5 0.6 7 0.6 15 1.0 
LOAD COMB 126 COMB - 1 DEAD + 1 DEAD + 0.7 SEISMIC-H (1)
5 1.0 7 1.0 1 0.7 
LOAD COMB 127 COMB - 1 DEAD + 1 DEAD + 0.7 SEISMIC-H (2)
5 1.0 7 1.0 2 0.7 
LOAD COMB 128 COMB - 1 DEAD + 1 DEAD + 0.7 SEISMIC-H (3)
5 1.0 7 1.0 3 0.7 
LOAD COMB 129 COMB - 1 DEAD + 1 DEAD + 0.7 SEISMIC-H (4)
5 1.0 7 1.0 4 0.7 
LOAD COMB 130 COMB - 1 DEAD + 1 DEAD + 0.75 ROOF LIVE + 0.53 SEISMIC-H (1)
5 1.0 7 1.0 6 0.75 1 0.53 
LOAD COMB 131 COMB - 1 DEAD + 1 DEAD + 0.75 ROOF LIVE + 0.53 SEISMIC-H (2)
5 1.0 7 1.0 6 0.75 2 0.53 
LOAD COMB 132 COMB - 1 DEAD + 1 DEAD + 0.75 ROOF LIVE + 0.53 SEISMIC-H (3)
5 1.0 7 1.0 6 0.75 3 0.53 
LOAD COMB 133 COMB - 1 DEAD + 1 DEAD + 0.75 ROOF LIVE + 0.53 SEISMIC-H (4)
5 1.0 7 1.0 6 0.75 4 0.53 
LOAD COMB 134 COMB - 0.6 DEAD + 0.6 DEAD + 0.7 SEISMIC-H (1)
5 0.6 7 0.6 1 0.7 
LOAD COMB 135 COMB - 0.6 DEAD + 0.6 DEAD + 0.7 SEISMIC-H (2)
5 0.6 7 0.6 2 0.7 
LOAD COMB 136 COMB - 0.6 DEAD + 0.6 DEAD + 0.7 SEISMIC-H (3)
5 0.6 7 0.6 3 0.7 
LOAD COMB 137 COMB - 0.6 DEAD + 0.6 DEAD + 0.7 SEISMIC-H (4)
5 0.6 7 0.6 4 0.7 
LOAD COMB 138 COMB - 1 DEAD + 1 DEAD + 1 CRANE HOOK + 1 CRANE HOOK + 1 CRANE HOOK + 1 CRANE HOOK
5 1.0 7 1.0 16 1.0 17 1.0 18 1.0 19 1.0 
LOAD COMB 139 COMB - 1 DEAD + 1 DEAD + 0.5 WIND + 1 CRANE HOOK + 1 CRANE HOOK + 1 CRANE HOOK + 1 CRANE HOOK (1)
5 1.0 7 1.0 8 0.5 16 1.0 17 1.0 18 1.0 19 1.0 
LOAD COMB 140 COMB - 1 DEAD + 1 DEAD + 0.5 WIND + 1 CRANE HOOK + 1 CRANE HOOK + 1 CRANE HOOK + 1 CRANE HOOK (2)
5 1.0 7 1.0 9 0.5 16 1.0 17 1.0 18 1.0 19 1.0 
LOAD COMB 141 COMB - 1 DEAD + 1 DEAD + 0.5 WIND + 1 CRANE HOOK + 1 CRANE HOOK + 1 CRANE HOOK + 1 CRANE HOOK (3)
5 1.0 7 1.0 10 0.5 16 1.0 17 1.0 18 1.0 19 1.0 
LOAD COMB 142 COMB - 1 DEAD + 1 DEAD + 0.5 WIND + 1 CRANE HOOK + 1 CRANE HOOK + 1 CRANE HOOK + 1 CRANE HOOK (4)
5 1.0 7 1.0 11 0.5 16 1.0 17 1.0 18 1.0 19 1.0 
LOAD COMB 143 COMB - 1 DEAD + 1 DEAD + 0.5 WIND + 1 CRANE HOOK + 1 CRANE HOOK + 1 CRANE HOOK + 1 CRANE HOOK (5)
5 1.0 7 1.0 12 0.5 16 1.0 17 1.0 18 1.0 19 1.0 
LOAD COMB 144 COMB - 1 DEAD + 1 DEAD + 0.5 WIND + 1 CRANE HOOK + 1 CRANE HOOK + 1 CRANE HOOK + 1 CRANE HOOK (6)
5 1.0 7 1.0 13 0.5 16 1.0 17 1.0 18 1.0 19 1.0 
LOAD COMB 145 COMB - 1 DEAD + 1 DEAD + 0.5 WIND + 1 CRANE HOOK + 1 CRANE HOOK + 1 CRANE HOOK + 1 CRANE HOOK (7)
5 1.0 7 1.0 14 0.5 16 1.0 17 1.0 18 1.0 19 1.0 
LOAD COMB 146 COMB - 1 DEAD + 1 DEAD + 0.5 WIND + 1 CRANE HOOK + 1 CRANE HOOK + 1 CRANE HOOK + 1 CRANE HOOK (8)
5 1.0 7 1.0 15 0.5 16 1.0 17 1.0 18 1.0 19 1.0 
LOAD COMB 147 COMB - 1 DEAD + 1 DEAD + 1 ROOF LIVE
5 1.0 7 1.0 6 1.0 
LOAD COMB 148 COMB - 1 DEAD + 1 DEAD + 0.8 ROOF LIVE + 0.8 WIND (1)
5 1.0 7 1.0 6 0.8 8 0.8 
LOAD COMB 149 COMB - 1 DEAD + 1 DEAD + 0.8 ROOF LIVE + 0.8 WIND (2)
5 1.0 7 1.0 6 0.8 9 0.8 
LOAD COMB 150 COMB - 1 DEAD + 1 DEAD + 0.8 ROOF LIVE + 0.8 WIND (3)
5 1.0 7 1.0 6 0.8 10 0.8 
LOAD COMB 151 COMB - 1 DEAD + 1 DEAD + 0.8 ROOF LIVE + 0.8 WIND (4)
5 1.0 7 1.0 6 0.8 11 0.8 
LOAD COMB 152 COMB - 1 DEAD + 1 DEAD + 0.8 ROOF LIVE + 0.8 WIND (5)
5 1.0 7 1.0 6 0.8 12 0.8 
LOAD COMB 153 COMB - 1 DEAD + 1 DEAD + 0.8 ROOF LIVE + 0.8 WIND (6)
5 1.0 7 1.0 6 0.8 13 0.8 
LOAD COMB 154 COMB - 1 DEAD + 1 DEAD + 0.8 ROOF LIVE + 0.8 WIND (7)
5 1.0 7 1.0 6 0.8 14 0.8 
LOAD COMB 155 COMB - 1 DEAD + 1 DEAD + 0.8 ROOF LIVE + 0.8 WIND (8)
5 1.0 7 1.0 6 0.8 15 0.8 
LOAD COMB 156 COMB - 1 DEAD + 1 DEAD + 1 WIND (1)
5 1.0 7 1.0 8 1.0 
LOAD COMB 157 COMB - 1 DEAD + 1 DEAD + 1 WIND (2)
5 1.0 7 1.0 9 1.0 
LOAD COMB 158 COMB - 1 DEAD + 1 DEAD + 1 WIND (3)
5 1.0 7 1.0 10 1.0 
LOAD COMB 159 COMB - 1 DEAD + 1 DEAD + 1 WIND (4)
5 1.0 7 1.0 11 1.0 
LOAD COMB 160 COMB - 1 DEAD + 1 DEAD + 1 WIND (5)
5 1.0 7 1.0 12 1.0 
LOAD COMB 161 COMB - 1 DEAD + 1 DEAD + 1 WIND (6)
5 1.0 7 1.0 13 1.0 
LOAD COMB 162 COMB - 1 DEAD + 1 DEAD + 1 WIND (7)
5 1.0 7 1.0 14 1.0 
LOAD COMB 163 COMB - 1 DEAD + 1 DEAD + 1 WIND (8)
5 1.0 7 1.0 15 1.0 
LOAD COMB 164 COMB - 1 DEAD + 1 DEAD + 1 SEISMIC-H (1)
5 1.0 7 1.0 1 1.0 
LOAD COMB 165 COMB - 1 DEAD + 1 DEAD + 1 SEISMIC-H (2)
5 1.0 7 1.0 2 1.0 
LOAD COMB 166 COMB - 1 DEAD + 1 DEAD + 1 SEISMIC-H (3)
5 1.0 7 1.0 3 1.0 
LOAD COMB 167 COMB - 1 DEAD + 1 DEAD + 1 SEISMIC-H (4)
5 1.0 7 1.0 4 1.0 
LOAD COMB 168 COMB - 1 DEAD + 1 DEAD + 1 ROOF LIVE + 1 CRANE HOOK + 1 CRANE HOOK + 1 CRANE HOOK + 1 CRANE HOOK
5 1.0 7 1.0 6 1.0 16 1.0 17 1.0 18 1.0 19 1.0 
LOAD COMB 169 COMB - 1 DEAD + 1 DEAD + 0.8 ROOF LIVE + 0.8 SEISMIC-H + 0.8 CRANE HOOK + 0.8 CRANE HOOK + 0.8 CRANE HOOK + 0.8 CRANE HOOK (1)
5 1.0 7 1.0 6 0.8 1 0.8 16 0.8 17 0.8 18 0.8 19 0.8 
LOAD COMB 170 COMB - 1 DEAD + 1 DEAD + 0.8 ROOF LIVE + 0.8 SEISMIC-H + 0.8 CRANE HOOK + 0.8 CRANE HOOK + 0.8 CRANE HOOK + 0.8 CRANE HOOK (2)
5 1.0 7 1.0 6 0.8 2 0.8 16 0.8 17 0.8 18 0.8 19 0.8 
LOAD COMB 171 COMB - 1 DEAD + 1 DEAD + 0.8 ROOF LIVE + 0.8 SEISMIC-H + 0.8 CRANE HOOK + 0.8 CRANE HOOK + 0.8 CRANE HOOK + 0.8 CRANE HOOK (3)
5 1.0 7 1.0 6 0.8 3 0.8 16 0.8 17 0.8 18 0.8 19 0.8 
LOAD COMB 172 COMB - 1 DEAD + 1 DEAD + 0.8 ROOF LIVE + 0.8 SEISMIC-H + 0.8 CRANE HOOK + 0.8 CRANE HOOK + 0.8 CRANE HOOK + 0.8 CRANE HOOK (4)
5 1.0 7 1.0 6 0.8 4 0.8 16 0.8 17 0.8 18 0.8 19 0.8 
PERFORM ANALYSIS
*******************************************************
DEFINE ENVELOPE
101 TO 146 ENVELOPE 1 TYPE STRENGTH
147 TO 172 ENVELOPE 2 TYPE SERVICEABILITY
END DEFINE ENVELOPE
PARAMETER 1
CODE AISC UNIFIED 2022
METHOD ASD
FYLD 345000 MEMB 1 TO 100 153 160 TO 263 322 329 TO 357 367 TO 466 525 532 -
533 TO 560 570 TO 583 589 TO 644
RATIO 0.95 MEMB 1 TO 100 153 160 TO 263 322 329 TO 357 367 TO 466 525 532 -
533 TO 560 570 TO 583 589 TO 644
BEAM 1 MEMB 1 TO 100 153 160 TO 263 322 329 TO 357 367 TO 466 525 532 TO 560 -
570 TO 583 589 TO 644
STP 2 MEMB 1 TO 100 153 160 TO 263 322 329 TO 357 367 TO 466 525 532 TO 560 -
570 TO 583 589 TO 644
TRACK 0 MEMB 1 TO 100 153 160 TO 263 322 329 TO 357 367 TO 466 525 -
532 TO 560 570 TO 583 589 TO 644
**********COLUMN******************************
UNB 1.5 MEMB 1 TO 6 26 TO 31 51 TO 56 76 TO 81 164 TO 169 189 TO 194 -
214 TO 219 239 TO 244 333 TO 338 367 TO 372 392 TO 397 417 TO 422 -
442 TO 447 536 TO 541 570 TO 575 589 TO 594 603 TO 608 617 TO 622 -
631 TO 636
UNT 1.5 MEMB 1 TO 6 26 TO 31 51 TO 56 76 TO 81 164 TO 169 189 TO 194 -
214 TO 219 239 TO 244 333 TO 338 367 TO 372 392 TO 397 417 TO 422 -
442 TO 447 536 TO 541 570 TO 575 589 TO 594 603 TO 608 617 TO 622 -
631 TO 636
LZ 7 MEMB 1 TO 6 26 TO 31 51 TO 56 76 TO 81 164 TO 169 189 TO 194 214 TO 219 -
239 TO 244 333 TO 338 367 TO 372 392 TO 397 417 TO 422 442 TO 447 -
536 TO 541 570 TO 572 589 TO 591 603 TO 605 617 TO 619 631 TO 633
LZ 9.1 MEMB 7 TO 9 32 TO 34 57 TO 59 82 TO 84 170 TO 172 195 TO 197 -
220 TO 222 245 TO 247 339 TO 341 373 TO 375 398 TO 400 423 TO 425 -
448 TO 450 542 TO 544 573 TO 575 592 TO 594 606 TO 608 620 TO 622 -
634 TO 636
KZ 1.2 MEMB 1 TO 9 26 TO 34 51 TO 59 76 TO 84 164 TO 172 189 TO 197 -
214 TO 222 239 TO 247 333 TO 341 367 TO 375 392 TO 400 417 TO 425 -
442 TO 450 536 TO 544 570 TO 575 589 TO 594 603 TO 608 617 TO 622 -
631 TO 636
**********RAFTER******************************
UNB 1.5 MEMB 10 TO 17 35 TO 42 60 TO 67 85 TO 92 173 TO 180 198 TO 205 223 -
224 TO 230 248 TO 255 342 TO 349 376 TO 383 401 TO 408 426 TO 433 451 TO 458 -
545 TO 552 576 TO 579 595 TO 598 609 TO 612 623 TO 626 637 TO 640
UNT 1.5 MEMB 10 TO 17 35 TO 42 60 TO 67 85 TO 92 173 TO 180 198 TO 205 223 -
224 TO 230 248 TO 255 342 TO 349 376 TO 383 401 TO 408 426 TO 433 451 TO 458 -
545 TO 552 576 TO 579 595 TO 598 609 TO 612 623 TO 626 637 TO 640
LZ 20.9 MEMB 10 TO 17 35 TO 42 60 TO 67 85 TO 92 173 TO 180 198 TO 205 223 -
224 TO 230 248 TO 255 342 TO 349 376 TO 383 401 TO 408 426 TO 433 451 TO 458 -
545 TO 552 576 TO 579 595 TO 598 609 TO 612 623 TO 626 637 TO 640
**********BRACKET******************************
CAN 1 MEMB 18 TO 25 43 TO 50 68 TO 75 93 TO 100 181 TO 188 206 TO 213 231 -
232 TO 238 256 TO 263 350 TO 357 384 TO 391 409 TO 416 434 TO 441 459 TO 466 -
553 TO 560 580 TO 583 599 TO 602 613 TO 616 627 TO 630 641 TO 644
**********PORTAL BRACING******************************
LZ 7.5 MEMB 153 160 161 322 329 330 525 532 533
UNT 1 MEMB 162 163 331 332 534 535
UNB 1 MEMB 162 163 331 332 534 535
CHECK CODE MEMB 1 TO 100 153 160 TO 263 322 329 TO 357 367 TO 466 525 532 -
533 TO 560 570 TO 583 589 TO 644
STEEL MEMBER TAKE OFF LIST 1 TO 17 26 TO 42 51 TO 67 76 TO 92 153 160 TO 180 -
189 TO 205 214 TO 230 239 TO 255 322 329 TO 349 367 TO 383 392 TO 408 417 -
418 TO 433 442 TO 458 525 532 TO 552 570 TO 579 589 TO 598 603 TO 612 617 -
618 TO 626 631 TO 640
PARAMETER 2
CODE AISC UNIFIED 2022
METHOD ASD
FYLD 245000 MEMB 102 105 108 111 114 117 120 123 126 129 132 TO 152 -
154 TO 159 291 TO 321 323 TO 328 494 TO 524 526 TO 531 661 663 665 667 669 -
670 TO 687
STP 1 MEMB 102 105 108 111 114 117 120 123 126 129 132 TO 152 154 TO 159 291 -
292 TO 321 323 TO 328 494 TO 524 526 TO 531 661 663 665 667 669 TO 687
TRACK 0 MEMB 102 105 108 111 114 117 120 123 126 129 132 TO 152 154 TO 159 -
291 TO 321 323 TO 328 494 TO 524 526 TO 531 661 663 665 667 669 TO 687
RATIO 0.95 MEMB 102 105 108 111 114 117 120 123 126 129 132 TO 152 -
154 TO 159 291 TO 321 323 TO 328 494 TO 524 526 TO 531 661 663 665 667 669 -
670 TO 687
MAIN 250 MEMB 102 105 108 111 114 117 120 123 126 129 132 TO 152 154 TO 159 -
291 TO 321 323 TO 328 494 TO 524 526 TO 531 661 663 665 667 669 TO 687
TMAIN 400 MEMB 102 105 108 111 114 117 120 123 126 129 132 TO 152 154 TO 159 -
291 TO 321 323 TO 328 494 TO 524 526 TO 531 661 663 665 667 669 TO 687
KX 0.5 MEMB 102 105 108 111 114 117 120 123 126 129 132 TO 152 154 TO 159 -
291 TO 321 323 TO 328 494 TO 524 526 TO 531 661 663 665 667 669 TO 687
KY 0.5 MEMB 102 105 108 111 114 117 120 123 126 129 132 TO 152 154 TO 159 -
291 TO 321 323 TO 328 494 TO 524 526 TO 531 661 663 665 667 669 TO 687
KZ 0.5 MEMB 102 105 108 111 114 117 120 123 126 129 132 TO 152 154 TO 159 -
291 TO 321 323 TO 328 494 TO 524 526 TO 531 661 663 665 667 669 TO 687
CHECK CODE MEMB 102 105 108 111 114 117 120 123 126 129 132 TO 152 -
154 TO 159 291 TO 321 323 TO 328 494 TO 524 526 TO 531 661 663 665 667 669 -
670 TO 687
STEEL MEMBER TAKE OFF LIST 102 105 108 111 114 117 120 123 126 129 -
132 TO 152 154 TO 159 291 TO 321 323 TO 328 494 TO 524 526 TO 531 661 663 -
665 667 669 TO 687
FINISH
