STAAD SPACE
START JOB INFORMATION
ENGINEER DATE 26-Jun-25
END JOB INFORMATION
INPUT WIDTH 79
UNIT METER KN
JOINT COORDINATES
1 0 0 0; 2 10.47 0 0; 3 0 9.50002 0; 5 5.23501 10.024 0; 6 10.47 9.50002 0;
7 0 7.00001 0; 8 10.47 7.00001 0; 9 0.750002 7.00001 0; 10 9.72 7.00001 0;
11 0 3.00001 0; 12 10.47 3.00001 0; 13 0 0 -3.50001; 14 0 3.00001 -3.50001;
15 5.23501 10.024 -3.50001; 16 0 9.50002 -3.50001; 17 10.47 9.50002 -3.50001;
18 10.47 7.00001 -3.50001; 19 0 7.00001 -3.50001; 20 10.47 3.00001 -3.50001;
21 0.750002 7.00001 -3.50001; 22 9.72 7.00001 -3.50001; 23 10.47 0 -3.50001;
24 0 0 3.50001; 25 0 3.00001 3.50001; 26 5.23501 10.024 3.50001;
27 0 9.50002 3.50001; 28 10.47 9.50002 3.50001; 29 10.47 7.00001 3.50001;
30 0 7.00001 3.50001; 31 10.47 3.00001 3.50001; 32 0.750002 7.00001 3.50001;
33 9.72 7.00001 3.50001; 34 10.47 0 3.50001; 35 0 0 -7.00002;
36 0 3.00001 -7.00002; 37 5.23501 10.024 -7.00002; 38 0 9.50002 -7.00002;
39 10.47 9.50002 -7.00002; 40 10.47 7.00001 -7.00002; 41 0 7.00001 -7.00002;
42 10.47 3.00001 -7.00002; 43 0.750002 7.00001 -7.00002;
44 9.72 7.00001 -7.00002; 45 10.47 0 -7.00002; 46 0 0 -11.21;
47 10.47 0 -11.21; 48 0 4.90001 -11.21; 49 10.47 4.90001 -11.21;
50 0 5.32101 -7.00002; 51 10.47 5.32101 -7.00002; 52 0 3.00001 -11.21;
53 10.47 3.00001 -11.21;
MEMBER INCIDENCES
1 1 11; 2 5 3; 3 5 6; 4 6 8; 5 7 3; 6 8 12; 7 7 9; 8 10 8; 9 11 7; 10 12 2;
11 13 14; 12 15 16; 13 15 17; 14 17 18; 15 19 16; 16 18 20; 17 19 21; 18 22 18;
19 14 19; 20 20 23; 21 13 7; 22 1 19; 23 19 3; 24 7 16; 25 16 5; 26 3 15;
27 15 5; 28 15 6; 29 5 17; 30 6 18; 31 17 8; 32 18 2; 33 8 23; 34 19 7;
35 18 8; 36 24 25; 37 26 27; 38 26 28; 39 28 29; 40 30 27; 41 29 31; 42 30 32;
43 33 29; 44 25 30; 45 31 34; 46 5 26; 47 16 3; 48 3 27; 49 17 6; 50 6 28;
51 35 36; 52 37 38; 53 37 39; 54 39 40; 55 41 38; 56 40 51; 57 41 43; 58 44 40;
59 36 50; 60 42 45; 61 37 15; 62 38 16; 63 39 17; 64 46 52; 65 47 53; 66 50 41;
67 51 42; 68 48 50; 69 49 51; 70 48 49; 71 50 51; 72 52 48; 73 53 49;
START GROUP DEFINITION
MEMBER
END GROUP DEFINITION
DEFINE MATERIAL START
ISOTROPIC STEEL
E 1.99947e+08
POISSON 0.3
DENSITY 76.8191
ALPHA 6.5e-06
DAMP 0.03
G 7.7221e+07
TYPE STEEL
STRENGTH RY 1.5 RT 1.2
END DEFINE MATERIAL
MEMBER PROPERTY
1 4 TO 6 9 TO 11 14 TO 16 19 20 36 39 TO 41 44 45 51 54 TO 56 59 60 66 -
67 TAPERED 0.366 0.005 0.366 0.25 0.01
2 3 12 13 37 38 52 53 TAPERED 0.412 0.005 0.412 0.175 0.008
7 8 17 18 42 43 57 58 TAPERED 0.516 0.005 0.516 0.2 0.008
MEMBER PROPERTY COLDFORMED INDIAN
27 46 TO 50 61 TO 63 70 71 TABLE ST 200ZS60X2
MEMBER PROPERTY INDIAN
21 TO 26 28 TO 33 TABLE ST PIPE OD 0.024 ID 0
34 35 TABLE ST TUB90903.7
MEMBER PROPERTY
64 65 72 73 TAPERED 0.412 0.005 0.412 0.15 0.006
68 69 TAPERED 0.412 0.005 0.412 0.15 0.006
CONSTANTS
BETA 90 MEMB 64 65 72 73
MATERIAL STEEL ALL
SUPPORTS
1 2 13 23 24 34 35 45 TO 47 FIXED BUT MX
DEFINE IS1893 2016 LOAD
ZONE 0.16 RF 4.5 I 1 SS 2 ST 2 DM 0.05
SELFWEIGHT 1 
MEMBER WEIGHT
2 3 12 13 37 38 52 53 CON 0.525
LOAD 1 LOADTYPE Seismic-H  TITLE EQX+
1893 LOAD X 1
PERFORM ANALYSIS
CHANGE
LOAD 2 LOADTYPE Seismic-H  TITLE EQX-
1893 LOAD X -1
PERFORM ANALYSIS
CHANGE
LOAD 3 LOADTYPE Seismic-H  TITLE EQZ+
1893 LOAD Z 1
PERFORM ANALYSIS
CHANGE
LOAD 4 LOADTYPE Seismic-H  TITLE EQZ-
1893 LOAD Z -1
PERFORM ANALYSIS
CHANGE
LOAD 5 LOADTYPE Dead  TITLE DL
MEMBER LOAD
2 3 12 13 37 38 52 53 UNI GY -0.525
LOAD 6 LOADTYPE Live  TITLE LL
MEMBER LOAD
2 3 12 13 37 38 52 53 UNI GY -2.625
LOAD 7 LOADTYPE Wind  TITLE WLP
MEMBER LOAD
1 5 9 11 15 19 36 40 44 51 55 59 66 UNI GX 1.52
2 12 37 52 UNI Y 3.41
3 13 38 53 UNI Y 1.89
4 6 10 14 16 20 39 41 45 54 56 60 67 UNI GX 1.37
64 65 72 73 UNI GZ -7.29
LOAD 8 LOADTYPE Wind  TITLE WLS
MEMBER LOAD
1 5 9 11 15 19 36 40 44 51 55 59 66 UNI GX 2.74
2 12 37 52 UNI Y 2.19
3 13 38 53 UNI Y 1.28
4 6 10 14 16 20 39 41 45 54 56 60 67 UNI GX -0.15
54 TO 56 64 TO 66 72 73 UNI GZ -3.64
LOAD 9 LOADTYPE Wind  TITLE WRP
MEMBER LOAD
1 5 9 11 15 19 36 40 44 51 55 59 66 UNI GX -1.37
2 12 37 52 UNI Y 1.89
3 13 38 53 UNI Y 3.41
4 6 10 14 16 20 39 41 45 54 56 60 67 UNI GX -1.52
MEMBER LOAD
54 TO 56 64 TO 66 72 73 UNI GZ 7.29
LOAD 10 LOADTYPE Wind  TITLE WRS
MEMBER LOAD
1 5 9 11 15 19 36 40 44 51 55 59 66 UNI GX -0.15
2 12 37 52 UNI Y 1.28
3 13 38 53 UNI Y 2.19
4 6 10 14 16 20 39 41 45 54 56 60 67 UNI GX 2.74
54 TO 56 64 TO 66 72 73 UNI GZ 3.64
LOAD 11 LOADTYPE Wind  TITLE WPLP
MEMBER LOAD
1 5 9 11 15 19 36 40 44 51 55 59 66 UNI GX -2.44
2 12 37 52 UNI Y 3.11
3 13 38 53 UNI Y 1.89
4 6 10 14 16 20 39 41 45 54 56 60 67 UNI GX -2.44
68 69 UNI Y 3.11
54 TO 56 64 TO 66 72 73 UNI GZ -4.1
LOAD 12 LOADTYPE Wind  TITLE WPRP
MEMBER LOAD
1 5 9 11 15 19 36 40 44 51 55 59 66 UNI GX -1.22
2 12 37 52 UNI Y 2.13
3 13 38 53 UNI Y 1.22
4 6 10 14 16 20 39 41 45 54 56 60 67 UNI GX -1.22
68 69 UNI Y 2.13
54 TO 56 64 TO 66 72 73 UNI GZ -0.46
LOAD 13 LOADTYPE Wind  TITLE WPLS
MEMBER LOAD
1 5 9 11 15 19 36 40 44 51 55 59 66 UNI GX 2.44
2 12 37 52 UNI Y 1.89
3 13 38 53 UNI Y 3.11
4 6 10 14 16 20 39 41 45 54 56 60 67 UNI GX 2.44
68 69 UNI Y 3.11
54 TO 56 64 TO 66 72 73 UNI GZ -4.1
LOAD 14 LOADTYPE Wind  TITLE WPRS
MEMBER LOAD
1 5 9 11 15 19 36 40 44 51 55 59 66 UNI GX 1.22
2 12 37 52 UNI Y 1.22
3 13 38 53 UNI Y 2.13
4 6 10 14 16 20 39 41 45 54 56 60 67 UNI GX 1.22
68 69 UNI Y 2.13
54 TO 56 64 TO 66 72 73 UNI GZ 0.46
LOAD 15 LOADTYPE Crane Hook  TITLE CR1
JOINT LOAD
9 21 32 43 FX 7.66 FY -105.2
10 22 33 44 FX 7.66 FY -33.63
LOAD 16 LOADTYPE Crane Hook  TITLE CR2
JOINT LOAD
9 21 32 43 FX -7.66 FY -105.2
10 22 33 44 FX -7.66 FY -33.63
LOAD 17 LOADTYPE Crane Hook  TITLE CR3
JOINT LOAD
9 21 32 43 FX 7.66 FY -33.63
10 22 33 44 FX 7.66 FY -105.2
LOAD 18 LOADTYPE Crane Hook  TITLE CR4
JOINT LOAD
9 21 32 43 FX -7.66 FY -33.63
10 22 33 44 FX -7.66 FY -105.2
LOAD COMB 201 COMB - 1.5 DEAD + 1.5 LIVE +1.05 CRANE HOOK
5 1.5 6 1.5 15 1.05 16 1.05 17 1.05 18 1.05 
LOAD COMB 202 COMB - 1.5 DEAD + 1.05 LIVE + 1.05 CRANE HOOK
5 1.5 6 1.05 15 1.5 16 1.5 17 1.5 18 1.5 
LOAD COMB 203 COMB - 1.2 DEAD + 1.2 LIVE + 0.6 WIND +1.05 CRANE HOOK (1)
5 1.2 6 1.2 7 0.6 15 1.05 16 1.05 17 1.05 18 1.05 
LOAD COMB 204 COMB - 1.2 DEAD + 1.2 LIVE + 0.6 WIND +1.05 CRANE HOOK (2)
5 1.2 6 1.2 8 0.6 15 1.05 16 1.05 17 1.05 18 1.05 
LOAD COMB 205 COMB - 1.2 DEAD + 1.2 LIVE + 0.6 WIND +1.05 CRANE HOOK (3)
5 1.2 6 1.2 9 0.6 15 1.05 16 1.05 17 1.05 18 1.05 
LOAD COMB 206 COMB - 1.2 DEAD + 1.2 LIVE + 0.6 WIND +1.05 CRANE HOOK (4)
5 1.2 6 1.2 10 0.6 15 1.05 16 1.05 17 1.05 18 1.05 
LOAD COMB 207 COMB - 1.2 DEAD + 1.2 LIVE + 0.6 WIND +1.05 CRANE HOOK (5)
5 1.2 6 1.2 11 0.6 15 1.05 16 1.05 17 1.05 18 1.05 
LOAD COMB 208 COMB - 1.2 DEAD + 1.2 LIVE + 0.6 WIND +1.05 CRANE HOOK (6)
5 1.2 6 1.2 12 0.6 15 1.05 16 1.05 17 1.05 18 1.05 
LOAD COMB 209 COMB - 1.2 DEAD + 1.2 LIVE + 0.6 WIND +1.05 CRANE HOOK (7)
5 1.2 6 1.2 13 0.6 15 1.05 16 1.05 17 1.05 18 1.05 
LOAD COMB 210 COMB - 1.2 DEAD + 1.2 LIVE + 0.6 WIND +1.05 CRANE HOOK (8)
5 1.2 6 1.2 14 0.6 15 1.05 16 1.05 17 1.05 18 1.05 
LOAD COMB 211 COMB - 1.2 DEAD + 1.2 LIVE + -0.6 WIND +1.05 CRANE HOOK (1)
5 1.2 6 1.2 7 -0.6 15 1.05 16 1.05 17 1.05 18 1.05 
LOAD COMB 212 COMB - 1.2 DEAD + 1.2 LIVE + -0.6 WIND +1.05 CRANE HOOK (2)
5 1.2 6 1.2 8 -0.6 15 1.05 16 1.05 17 1.05 18 1.05 
LOAD COMB 213 COMB - 1.2 DEAD + 1.2 LIVE + -0.6 WIND +1.05 CRANE HOOK (3)
5 1.2 6 1.2 9 -0.6 15 1.05 16 1.05 17 1.05 18 1.05 
LOAD COMB 214 COMB - 1.2 DEAD + 1.2 LIVE + -0.6 WIND +1.05 CRANE HOOK (4)
5 1.2 6 1.2 10 -0.6 15 1.05 16 1.05 17 1.05 18 1.05 
LOAD COMB 215 COMB - 1.2 DEAD + 1.2 LIVE + -0.6 WIND +1.05 CRANE HOOK (5)
5 1.2 6 1.2 11 -0.6 15 1.05 16 1.05 17 1.05 18 1.05 
LOAD COMB 216 COMB - 1.2 DEAD + 1.2 LIVE + -0.6 WIND +1.05 CRANE HOOK (6)
5 1.2 6 1.2 12 -0.6 15 1.05 16 1.05 17 1.05 18 1.05 
LOAD COMB 217 COMB - 1.2 DEAD + 1.2 LIVE + -0.6 WIND +1.05 CRANE HOOK (7)
5 1.2 6 1.2 13 -0.6 15 1.05 16 1.05 17 1.05 18 1.05 
LOAD COMB 218 COMB - 1.2 DEAD + 1.2 LIVE + -0.6 WIND +1.05 CRANE HOOK (8)
5 1.2 6 1.2 14 -0.6 15 1.05 16 1.05 17 1.05 18 1.05 
LOAD COMB 219 COMB - 1.2 DEAD + 1.05 LIVE + 0.6 WIND + 1.2 CRANE HOOK(1)
5 1.2 6 1.05 7 0.6 15 1.2 16 1.2 17 1.2 18 1.2 
LOAD COMB 220 COMB - 1.2 DEAD + 1.05 LIVE + 0.6 WIND + 1.2 CRANE HOOK(2)
5 1.2 6 1.05 8 0.6 15 1.2 16 1.2 17 1.2 18 1.2 
LOAD COMB 221 COMB - 1.2 DEAD + 1.05 LIVE + 0.6 WIND + 1.2 CRANE HOOK(3)
5 1.2 6 1.05 9 0.6 15 1.2 16 1.2 17 1.2 18 1.2 
LOAD COMB 222 COMB - 1.2 DEAD + 1.05 LIVE + 0.6 WIND + 1.2 CRANE HOOK(4)
5 1.2 6 1.05 10 0.6 15 1.2 16 1.2 17 1.2 18 1.2 
LOAD COMB 223 COMB - 1.2 DEAD + 1.05 LIVE + 0.6 WIND + 1.2 CRANE HOOK(5)
5 1.2 6 1.05 11 0.6 15 1.2 16 1.2 17 1.2 18 1.2 
LOAD COMB 224 COMB - 1.2 DEAD + 1.05 LIVE + 0.6 WIND + 1.2 CRANE HOOK(6)
5 1.2 6 1.05 12 0.6 15 1.2 16 1.2 17 1.2 18 1.2 
LOAD COMB 225 COMB - 1.2 DEAD + 1.05 LIVE + 0.6 WIND + 1.2 CRANE HOOK(7)
5 1.2 6 1.05 13 0.6 15 1.2 16 1.2 17 1.2 18 1.2 
LOAD COMB 226 COMB - 1.2 DEAD + 1.05 LIVE + 0.6 WIND + 1.2 CRANE HOOK(8)
5 1.2 6 1.05 14 0.6 15 1.2 16 1.2 17 1.2 18 1.2 
LOAD COMB 227 COMB - 1.2 DEAD + 1.05 LIVE + -0.6 WIND + 1.2 CRANE HOOK(1)
5 1.2 6 1.05 7 -0.6 15 1.2 16 1.2 17 1.2 18 1.2 
LOAD COMB 228 COMB - 1.2 DEAD + 1.05 LIVE + -0.6 WIND + 1.2 CRANE HOOK(2)
5 1.2 6 1.05 8 -0.6 15 1.2 16 1.2 17 1.2 18 1.2 
LOAD COMB 229 COMB - 1.2 DEAD + 1.05 LIVE + -0.6 WIND + 1.2 CRANE HOOK(3)
5 1.2 6 1.05 9 -0.6 15 1.2 16 1.2 17 1.2 18 1.2 
LOAD COMB 230 COMB - 1.2 DEAD + 1.05 LIVE + -0.6 WIND + 1.2 CRANE HOOK(4)
5 1.2 6 1.05 10 -0.6 15 1.2 16 1.2 17 1.2 18 1.2 
LOAD COMB 231 COMB - 1.2 DEAD + 1.05 LIVE + -0.6 WIND + 1.2 CRANE HOOK(5)
5 1.2 6 1.05 11 -0.6 15 1.2 16 1.2 17 1.2 18 1.2 
LOAD COMB 232 COMB - 1.2 DEAD + 1.05 LIVE + -0.6 WIND + 1.2 CRANE HOOK(6)
5 1.2 6 1.05 12 -0.6 15 1.2 16 1.2 17 1.2 18 1.2 
LOAD COMB 233 COMB - 1.2 DEAD + 1.05 LIVE + -0.6 WIND + 1.2 CRANE HOOK(7)
5 1.2 6 1.05 13 -0.6 15 1.2 16 1.2 17 1.2 18 1.2 
LOAD COMB 234 COMB - 1.2 DEAD + 1.05 LIVE + -0.6 WIND + 1.2 CRANE HOOK(8)
5 1.2 6 1.05 14 -0.6 15 1.2 16 1.2 17 1.2 18 1.2 
LOAD COMB 235 COMB - 1.2 DEAD + 1.2 LIVE + 0.6 SEISMIC-H +1.05 CRANE HOOK (1)
5 1.2 6 1.2 1 0.6 15 1.05 16 1.05 17 1.05 18 1.05 
LOAD COMB 236 COMB - 1.2 DEAD + 1.2 LIVE + 0.6 SEISMIC-H +1.05 CRANE HOOK (2)
5 1.2 6 1.2 2 0.6 15 1.05 16 1.05 17 1.05 18 1.05 
LOAD COMB 237 COMB - 1.2 DEAD + 1.2 LIVE + 0.6 SEISMIC-H +1.05 CRANE HOOK (3)
5 1.2 6 1.2 3 0.6 15 1.05 16 1.05 17 1.05 18 1.05 
LOAD COMB 238 COMB - 1.2 DEAD + 1.2 LIVE + 0.6 SEISMIC-H +1.05 CRANE HOOK (4)
5 1.2 6 1.2 4 0.6 15 1.05 16 1.05 17 1.05 18 1.05 
LOAD COMB 239 COMB - 1.2 DEAD + 1.2 LIVE + -0.6 SEISMIC-H +1.05 CRANE HOOK (1)
5 1.2 6 1.2 1 -0.6 15 1.05 16 1.05 17 1.05 18 1.05 
LOAD COMB 240 COMB - 1.2 DEAD + 1.2 LIVE + -0.6 SEISMIC-H +1.05 CRANE HOOK (2)
5 1.2 6 1.2 2 -0.6 15 1.05 16 1.05 17 1.05 18 1.05 
LOAD COMB 241 COMB - 1.2 DEAD + 1.2 LIVE + -0.6 SEISMIC-H +1.05 CRANE HOOK (3)
5 1.2 6 1.2 3 -0.6 15 1.05 16 1.05 17 1.05 18 1.05 
LOAD COMB 242 COMB - 1.2 DEAD + 1.2 LIVE + -0.6 SEISMIC-H +1.05 CRANE HOOK (4)
5 1.2 6 1.2 4 -0.6 15 1.05 16 1.05 17 1.05 18 1.05 
LOAD COMB 243 COMB - 1.2 DEAD + 1.05 LIVE + 0.6 SEISMIC-H + 1.2 CRANE HOOK(1)
5 1.2 6 1.05 1 0.6 15 1.2 16 1.2 17 1.2 18 1.2 
LOAD COMB 244 COMB - 1.2 DEAD + 1.05 LIVE + 0.6 SEISMIC-H + 1.2 CRANE HOOK(2)
5 1.2 6 1.05 2 0.6 15 1.2 16 1.2 17 1.2 18 1.2 
LOAD COMB 245 COMB - 1.2 DEAD + 1.05 LIVE + 0.6 SEISMIC-H + 1.2 CRANE HOOK(3)
5 1.2 6 1.05 3 0.6 15 1.2 16 1.2 17 1.2 18 1.2 
LOAD COMB 246 COMB - 1.2 DEAD + 1.05 LIVE + 0.6 SEISMIC-H + 1.2 CRANE HOOK(4)
5 1.2 6 1.05 4 0.6 15 1.2 16 1.2 17 1.2 18 1.2 
LOAD COMB 247 COMB - 1.2 DEAD + 1.05 LIVE + -0.6 SEISMIC-H + 1.2 CRANE HOOK(1)
5 1.2 6 1.05 1 -0.6 15 1.2 16 1.2 17 1.2 18 1.2 
LOAD COMB 248 COMB - 1.2 DEAD + 1.05 LIVE + -0.6 SEISMIC-H + 1.2 CRANE HOOK(2)
5 1.2 6 1.05 2 -0.6 15 1.2 16 1.2 17 1.2 18 1.2 
LOAD COMB 249 COMB - 1.2 DEAD + 1.05 LIVE + -0.6 SEISMIC-H + 1.2 CRANE HOOK(3)
5 1.2 6 1.05 3 -0.6 15 1.2 16 1.2 17 1.2 18 1.2 
LOAD COMB 250 COMB - 1.2 DEAD + 1.05 LIVE + -0.6 SEISMIC-H + 1.2 CRANE HOOK(4)
5 1.2 6 1.05 4 -0.6 15 1.2 16 1.2 17 1.2 18 1.2 
LOAD COMB 251 COMB - 1.2 DEAD + 1.2 LIVE + 1.2 WIND + 0.53 CRANE HOOK(1)
5 1.2 6 1.2 7 1.2 15 0.53 16 0.53 17 0.53 18 0.53 
LOAD COMB 252 COMB - 1.2 DEAD + 1.2 LIVE + 1.2 WIND + 0.53 CRANE HOOK(2)
5 1.2 6 1.2 8 1.2 15 0.53 16 0.53 17 0.53 18 0.53 
LOAD COMB 253 COMB - 1.2 DEAD + 1.2 LIVE + 1.2 WIND + 0.53 CRANE HOOK(3)
5 1.2 6 1.2 9 1.2 15 0.53 16 0.53 17 0.53 18 0.53 
LOAD COMB 254 COMB - 1.2 DEAD + 1.2 LIVE + 1.2 WIND + 0.53 CRANE HOOK(4)
5 1.2 6 1.2 10 1.2 15 0.53 16 0.53 17 0.53 18 0.53 
LOAD COMB 255 COMB - 1.2 DEAD + 1.2 LIVE + 1.2 WIND + 0.53 CRANE HOOK(5)
5 1.2 6 1.2 11 1.2 15 0.53 16 0.53 17 0.53 18 0.53 
LOAD COMB 256 COMB - 1.2 DEAD + 1.2 LIVE + 1.2 WIND + 0.53 CRANE HOOK(6)
5 1.2 6 1.2 12 1.2 15 0.53 16 0.53 17 0.53 18 0.53 
LOAD COMB 257 COMB - 1.2 DEAD + 1.2 LIVE + 1.2 WIND + 0.53 CRANE HOOK(7)
5 1.2 6 1.2 13 1.2 15 0.53 16 0.53 17 0.53 18 0.53 
LOAD COMB 258 COMB - 1.2 DEAD + 1.2 LIVE + 1.2 WIND + 0.53 CRANE HOOK(8)
5 1.2 6 1.2 14 1.2 15 0.53 16 0.53 17 0.53 18 0.53 
LOAD COMB 259 COMB - 1.2 DEAD + 1.2 LIVE + -1.2 WIND + 0.53 CRANE HOOK(1)
5 1.2 6 1.2 7 -1.2 15 0.53 16 0.53 17 0.53 18 0.53 
LOAD COMB 260 COMB - 1.2 DEAD + 1.2 LIVE + -1.2 WIND + 0.53 CRANE HOOK(2)
5 1.2 6 1.2 8 -1.2 15 0.53 16 0.53 17 0.53 18 0.53 
LOAD COMB 261 COMB - 1.2 DEAD + 1.2 LIVE + -1.2 WIND + 0.53 CRANE HOOK(3)
5 1.2 6 1.2 9 -1.2 15 0.53 16 0.53 17 0.53 18 0.53 
LOAD COMB 262 COMB - 1.2 DEAD + 1.2 LIVE + -1.2 WIND + 0.53 CRANE HOOK(4)
5 1.2 6 1.2 10 -1.2 15 0.53 16 0.53 17 0.53 18 0.53 
LOAD COMB 263 COMB - 1.2 DEAD + 1.2 LIVE + -1.2 WIND + 0.53 CRANE HOOK(5)
5 1.2 6 1.2 11 -1.2 15 0.53 16 0.53 17 0.53 18 0.53 
LOAD COMB 264 COMB - 1.2 DEAD + 1.2 LIVE + -1.2 WIND + 0.53 CRANE HOOK(6)
5 1.2 6 1.2 12 -1.2 15 0.53 16 0.53 17 0.53 18 0.53 
LOAD COMB 265 COMB - 1.2 DEAD + 1.2 LIVE + -1.2 WIND + 0.53 CRANE HOOK(7)
5 1.2 6 1.2 13 -1.2 15 0.53 16 0.53 17 0.53 18 0.53 
LOAD COMB 266 COMB - 1.2 DEAD + 1.2 LIVE + -1.2 WIND + 0.53 CRANE HOOK(8)
5 1.2 6 1.2 14 -1.2 15 0.53 16 0.53 17 0.53 18 0.53 
LOAD COMB 267 COMB - 1.2 DEAD + 0.53 LIVE + 1.2 WIND + 1.2 CRANE HOOK(1)
5 1.2 6 0.53 7 1.2 15 1.2 16 1.2 17 1.2 18 1.2 
LOAD COMB 268 COMB - 1.2 DEAD + 0.53 LIVE + 1.2 WIND + 1.2 CRANE HOOK(2)
5 1.2 6 0.53 8 1.2 15 1.2 16 1.2 17 1.2 18 1.2 
LOAD COMB 269 COMB - 1.2 DEAD + 0.53 LIVE + 1.2 WIND + 1.2 CRANE HOOK(3)
5 1.2 6 0.53 9 1.2 15 1.2 16 1.2 17 1.2 18 1.2 
LOAD COMB 270 COMB - 1.2 DEAD + 0.53 LIVE + 1.2 WIND + 1.2 CRANE HOOK(4)
# ... 25 like lines cut
LOAD COMB 283 COMB - 1.2 DEAD + 1.2 LIVE + 1.2 SEISMIC-H + 0.53 CRANE HOOK(1)
5 1.2 6 1.2 1 1.2 15 0.53 16 0.53 17 0.53 18 0.53 
LOAD COMB 284 COMB - 1.2 DEAD + 1.2 LIVE + 1.2 SEISMIC-H + 0.53 CRANE HOOK(2)
5 1.2 6 1.2 2 1.2 15 0.53 16 0.53 17 0.53 18 0.53 
LOAD COMB 285 COMB - 1.2 DEAD + 1.2 LIVE + 1.2 SEISMIC-H + 0.53 CRANE HOOK(3)
5 1.2 6 1.2 3 1.2 15 0.53 16 0.53 17 0.53 18 0.53 
LOAD COMB 286 COMB - 1.2 DEAD + 1.2 LIVE + 1.2 SEISMIC-H + 0.53 CRANE HOOK(4)
5 1.2 6 1.2 4 1.2 15 0.53 16 0.53 17 0.53 18 0.53 
LOAD COMB 287 COMB - 1.2 DEAD + 1.2 LIVE + -1.2 SEISMIC-H + 0.53 CRANE HOOK(1)
5 1.2 6 1.2 1 -1.2 15 0.53 16 0.53 17 0.53 18 0.53 
LOAD COMB 288 COMB - 1.2 DEAD + 1.2 LIVE + -1.2 SEISMIC-H + 0.53 CRANE HOOK(2)
5 1.2 6 1.2 2 -1.2 15 0.53 16 0.53 17 0.53 18 0.53 
LOAD COMB 289 COMB - 1.2 DEAD + 1.2 LIVE + -1.2 SEISMIC-H + 0.53 CRANE HOOK(3)
5 1.2 6 1.2 3 -1.2 15 0.53 16 0.53 17 0.53 18 0.53 
LOAD COMB 290 COMB - 1.2 DEAD + 1.2 LIVE + -1.2 SEISMIC-H + 0.53 CRANE HOOK(4)
5 1.2 6 1.2 4 -1.2 15 0.53 16 0.53 17 0.53 18 0.53 
LOAD COMB 291 COMB - 1.2 DEAD + 0.53 LIVE + 1.2 SEISMIC-H + 1.2 CRANE HOOK(1)
5 1.2 6 0.53 1 1.2 15 1.2 16 1.2 17 1.2 18 1.2 
LOAD COMB 292 COMB - 1.2 DEAD + 0.53 LIVE + 1.2 SEISMIC-H + 1.2 CRANE HOOK(2)
5 1.2 6 0.53 2 1.2 15 1.2 16 1.2 17 1.2 18 1.2 
LOAD COMB 293 COMB - 1.2 DEAD + 0.53 LIVE + 1.2 SEISMIC-H + 1.2 CRANE HOOK(3)
5 1.2 6 0.53 3 1.2 15 1.2 16 1.2 17 1.2 18 1.2 
LOAD COMB 294 COMB - 1.2 DEAD + 0.53 LIVE + 1.2 SEISMIC-H + 1.2 CRANE HOOK(4)
5 1.2 6 0.53 4 1.2 15 1.2 16 1.2 17 1.2 18 1.2 
LOAD COMB 295 COMB - 1.2 DEAD + 0.53 LIVE + -1.2 SEISMIC-H + 1.2 CRANE HOOK(1)
5 1.2 6 0.53 1 -1.2 15 1.2 16 1.2 17 1.2 18 1.2 
LOAD COMB 296 COMB - 1.2 DEAD + 0.53 LIVE + -1.2 SEISMIC-H + 1.2 CRANE HOOK(2)
5 1.2 6 0.53 2 -1.2 15 1.2 16 1.2 17 1.2 18 1.2 
LOAD COMB 297 COMB - 1.2 DEAD + 0.53 LIVE + -1.2 SEISMIC-H + 1.2 CRANE HOOK(3)
5 1.2 6 0.53 3 -1.2 15 1.2 16 1.2 17 1.2 18 1.2 
LOAD COMB 298 COMB - 1.2 DEAD + 0.53 LIVE + -1.2 SEISMIC-H + 1.2 CRANE HOOK(4)
5 1.2 6 0.53 4 -1.2 15 1.2 16 1.2 17 1.2 18 1.2 
LOAD COMB 299 COMB - 1.5 DEAD + 1.5 WIND (1)
5 1.5 7 1.5 
LOAD COMB 300 COMB - 1.5 DEAD + 1.5 WIND (2)
5 1.5 8 1.5 
LOAD COMB 301 COMB - 1.5 DEAD + 1.5 WIND (3)
5 1.5 9 1.5 
LOAD COMB 302 COMB - 1.5 DEAD + 1.5 WIND (4)
5 1.5 10 1.5 
LOAD COMB 303 COMB - 1.5 DEAD + 1.5 WIND (5)
5 1.5 11 1.5 
LOAD COMB 304 COMB - 1.5 DEAD + 1.5 WIND (6)
5 1.5 12 1.5 
LOAD COMB 305 COMB - 1.5 DEAD + 1.5 WIND (7)
5 1.5 13 1.5 
LOAD COMB 306 COMB - 1.5 DEAD + 1.5 WIND (8)
5 1.5 14 1.5 
LOAD COMB 307 COMB - 1.5 DEAD + -1.5 WIND (1)
5 1.5 7 -1.5 
LOAD COMB 308 COMB - 1.5 DEAD + -1.5 WIND (2)
5 1.5 8 -1.5 
LOAD COMB 309 COMB - 1.5 DEAD + -1.5 WIND (3)
5 1.5 9 -1.5 
LOAD COMB 310 COMB - 1.5 DEAD + -1.5 WIND (4)
5 1.5 10 -1.5 
LOAD COMB 311 COMB - 1.5 DEAD + -1.5 WIND (5)
5 1.5 11 -1.5 
LOAD COMB 312 COMB - 1.5 DEAD + -1.5 WIND (6)
5 1.5 12 -1.5 
LOAD COMB 313 COMB - 1.5 DEAD + -1.5 WIND (7)
5 1.5 13 -1.5 
LOAD COMB 314 COMB - 1.5 DEAD + -1.5 WIND (8)
5 1.5 14 -1.5 
LOAD COMB 315 COMB - 1.5 DEAD + 1.5 SEISMIC-H (1)
5 1.5 1 1.5 
LOAD COMB 316 COMB - 1.5 DEAD + 1.5 SEISMIC-H (2)
5 1.5 2 1.5 
LOAD COMB 317 COMB - 1.5 DEAD + 1.5 SEISMIC-H (3)
5 1.5 3 1.5 
LOAD COMB 318 COMB - 1.5 DEAD + 1.5 SEISMIC-H (4)
5 1.5 4 1.5 
LOAD COMB 319 COMB - 1.5 DEAD + -1.5 SEISMIC-H (1)
5 1.5 1 -1.5 
LOAD COMB 320 COMB - 1.5 DEAD + -1.5 SEISMIC-H (2)
5 1.5 2 -1.5 
LOAD COMB 321 COMB - 1.5 DEAD + -1.5 SEISMIC-H (3)
5 1.5 3 -1.5 
LOAD COMB 322 COMB - 1.5 DEAD + -1.5 SEISMIC-H (4)
5 1.5 4 -1.5 
LOAD COMB 323 COMB - 0.9 DEAD + 1.5 WIND (1)
5 0.9 7 1.5 
LOAD COMB 324 COMB - 0.9 DEAD + 1.5 WIND (2)
5 0.9 8 1.5 
LOAD COMB 325 COMB - 0.9 DEAD + 1.5 WIND (3)
5 0.9 9 1.5 
LOAD COMB 326 COMB - 0.9 DEAD + 1.5 WIND (4)
5 0.9 10 1.5 
LOAD COMB 327 COMB - 0.9 DEAD + 1.5 WIND (5)
5 0.9 11 1.5 
LOAD COMB 328 COMB - 0.9 DEAD + 1.5 WIND (6)
5 0.9 12 1.5 
LOAD COMB 329 COMB - 0.9 DEAD + 1.5 WIND (7)
5 0.9 13 1.5 
LOAD COMB 330 COMB - 0.9 DEAD + 1.5 WIND (8)
5 0.9 14 1.5 
LOAD COMB 331 COMB - 0.9 DEAD + -1.5 WIND (1)
5 0.9 7 -1.5 
LOAD COMB 332 COMB - 0.9 DEAD + -1.5 WIND (2)
5 0.9 8 -1.5 
LOAD COMB 333 COMB - 0.9 DEAD + -1.5 WIND (3)
5 0.9 9 -1.5 
LOAD COMB 334 COMB - 0.9 DEAD + -1.5 WIND (4)
5 0.9 10 -1.5 
LOAD COMB 335 COMB - 0.9 DEAD + -1.5 WIND (5)
5 0.9 11 -1.5 
LOAD COMB 336 COMB - 0.9 DEAD + -1.5 WIND (6)
5 0.9 12 -1.5 
LOAD COMB 337 COMB - 0.9 DEAD + -1.5 WIND (7)
5 0.9 13 -1.5 
LOAD COMB 338 COMB - 0.9 DEAD + -1.5 WIND (8)
5 0.9 14 -1.5 
LOAD COMB 339 COMB - 0.9 DEAD + 1.5 SEISMIC-H (1)
5 0.9 1 1.5 
LOAD COMB 340 COMB - 0.9 DEAD + 1.5 SEISMIC-H (2)
5 0.9 2 1.5 
LOAD COMB 341 COMB - 0.9 DEAD + 1.5 SEISMIC-H (3)
5 0.9 3 1.5 
LOAD COMB 342 COMB - 0.9 DEAD + 1.5 SEISMIC-H (4)
5 0.9 4 1.5 
LOAD COMB 343 COMB - 0.9 DEAD + -1.5 SEISMIC-H (1)
5 0.9 1 -1.5 
LOAD COMB 344 COMB - 0.9 DEAD + -1.5 SEISMIC-H (2)
5 0.9 2 -1.5 
LOAD COMB 345 COMB - 0.9 DEAD + -1.5 SEISMIC-H (3)
5 0.9 3 -1.5 
LOAD COMB 346 COMB - 0.9 DEAD + -1.5 SEISMIC-H (4)
5 0.9 4 -1.5 
LOAD COMB 347 COMB - 1 DEAD + 0.35 LIVE
5 1.0 6 0.35 
LOAD COMB 348 COMB - 1 DEAD + 1 LIVE + 1 CRANE HOOK + 1 CRANE HOOK
5 1.0 6 1.0 15 1.0 16 1.0 17 1.0 18 1.0 
LOAD COMB 349 COMB - 1 DEAD + 0.8 LIVE + 0.8 WIND + 0.8 CRANE HOOK (1)
5 1.0 6 0.8 7 0.8 15 0.8 16 0.8 17 0.8 18 0.8 
LOAD COMB 350 COMB - 1 DEAD + 0.8 LIVE + 0.8 WIND + 0.8 CRANE HOOK (2)
5 1.0 6 0.8 8 0.8 15 0.8 16 0.8 17 0.8 18 0.8 
LOAD COMB 351 COMB - 1 DEAD + 0.8 LIVE + 0.8 WIND + 0.8 CRANE HOOK (3)
5 1.0 6 0.8 9 0.8 15 0.8 16 0.8 17 0.8 18 0.8 
LOAD COMB 352 COMB - 1 DEAD + 0.8 LIVE + 0.8 WIND + 0.8 CRANE HOOK (4)
5 1.0 6 0.8 10 0.8 15 0.8 16 0.8 17 0.8 18 0.8 
LOAD COMB 353 COMB - 1 DEAD + 0.8 LIVE + 0.8 WIND + 0.8 CRANE HOOK (5)
5 1.0 6 0.8 11 0.8 15 0.8 16 0.8 17 0.8 18 0.8 
LOAD COMB 354 COMB - 1 DEAD + 0.8 LIVE + 0.8 WIND + 0.8 CRANE HOOK (6)
5 1.0 6 0.8 12 0.8 15 0.8 16 0.8 17 0.8 18 0.8 
LOAD COMB 355 COMB - 1 DEAD + 0.8 LIVE + 0.8 WIND + 0.8 CRANE HOOK (7)
5 1.0 6 0.8 13 0.8 15 0.8 16 0.8 17 0.8 18 0.8 
LOAD COMB 356 COMB - 1 DEAD + 0.8 LIVE + 0.8 WIND + 0.8 CRANE HOOK (8)
5 1.0 6 0.8 14 0.8 15 0.8 16 0.8 17 0.8 18 0.8 
LOAD COMB 357 COMB - 1 DEAD + 0.8 LIVE + -0.8 WIND + 0.8 CRANE HOOK (1)
5 1.0 6 0.8 7 -0.8 15 0.8 16 0.8 17 0.8 18 0.8 
LOAD COMB 358 COMB - 1 DEAD + 0.8 LIVE + -0.8 WIND + 0.8 CRANE HOOK (2)
5 1.0 6 0.8 8 -0.8 15 0.8 16 0.8 17 0.8 18 0.8 
LOAD COMB 359 COMB - 1 DEAD + 0.8 LIVE + -0.8 WIND + 0.8 CRANE HOOK (3)
5 1.0 6 0.8 9 -0.8 15 0.8 16 0.8 17 0.8 18 0.8 
LOAD COMB 360 COMB - 1 DEAD + 0.8 LIVE + -0.8 WIND + 0.8 CRANE HOOK (4)
5 1.0 6 0.8 10 -0.8 15 0.8 16 0.8 17 0.8 18 0.8 
LOAD COMB 361 COMB - 1 DEAD + 0.8 LIVE + -0.8 WIND + 0.8 CRANE HOOK (5)
5 1.0 6 0.8 11 -0.8 15 0.8 16 0.8 17 0.8 18 0.8 
LOAD COMB 362 COMB - 1 DEAD + 0.8 LIVE + -0.8 WIND + 0.8 CRANE HOOK (6)
5 1.0 6 0.8 12 -0.8 15 0.8 16 0.8 17 0.8 18 0.8 
LOAD COMB 363 COMB - 1 DEAD + 0.8 LIVE + -0.8 WIND + 0.8 CRANE HOOK (7)
5 1.0 6 0.8 13 -0.8 15 0.8 16 0.8 17 0.8 18 0.8 
LOAD COMB 364 COMB - 1 DEAD + 0.8 LIVE + -0.8 WIND + 0.8 CRANE HOOK (8)
5 1.0 6 0.8 14 -0.8 15 0.8 16 0.8 17 0.8 18 0.8 
LOAD COMB 365 COMB - 1 DEAD + 0.8 LIVE + 0.8 SEISMIC-H + 0.8 CRANE HOOK (1)
5 1.0 6 0.8 1 0.8 15 0.8 16 0.8 17 0.8 18 0.8 
LOAD COMB 366 COMB - 1 DEAD + 0.8 LIVE + 0.8 SEISMIC-H + 0.8 CRANE HOOK (2)
5 1.0 6 0.8 2 0.8 15 0.8 16 0.8 17 0.8 18 0.8 
LOAD COMB 367 COMB - 1 DEAD + 0.8 LIVE + 0.8 SEISMIC-H + 0.8 CRANE HOOK (3)
5 1.0 6 0.8 3 0.8 15 0.8 16 0.8 17 0.8 18 0.8 
LOAD COMB 368 COMB - 1 DEAD + 0.8 LIVE + 0.8 SEISMIC-H + 0.8 CRANE HOOK (4)
5 1.0 6 0.8 4 0.8 15 0.8 16 0.8 17 0.8 18 0.8 
LOAD COMB 369 COMB - 1 DEAD + 0.8 LIVE + -0.8 SEISMIC-H + 0.8 CRANE HOOK (1)
5 1.0 6 0.8 1 -0.8 15 0.8 16 0.8 17 0.8 18 0.8 
LOAD COMB 370 COMB - 1 DEAD + 0.8 LIVE + -0.8 SEISMIC-H + 0.8 CRANE HOOK (2)
5 1.0 6 0.8 2 -0.8 15 0.8 16 0.8 17 0.8 18 0.8 
LOAD COMB 371 COMB - 1 DEAD + 0.8 LIVE + -0.8 SEISMIC-H + 0.8 CRANE HOOK (3)
5 1.0 6 0.8 3 -0.8 15 0.8 16 0.8 17 0.8 18 0.8 
LOAD COMB 372 COMB - 1 DEAD + 0.8 LIVE + -0.8 SEISMIC-H + 0.8 CRANE HOOK (4)
5 1.0 6 0.8 4 -0.8 15 0.8 16 0.8 17 0.8 18 0.8 
LOAD COMB 373 COMB - 1 DEAD + 1 WIND (1)
5 1.0 7 1.0 
LOAD COMB 374 COMB - 1 DEAD + 1 WIND (2)
5 1.0 8 1.0 
LOAD COMB 375 COMB - 1 DEAD + 1 WIND (3)
5 1.0 9 1.0 
LOAD COMB 376 COMB - 1 DEAD + 1 WIND (4)
5 1.0 10 1.0 
LOAD COMB 377 COMB - 1 DEAD + 1 WIND (5)
5 1.0 11 1.0 
LOAD COMB 378 COMB - 1 DEAD + 1 WIND (6)
5 1.0 12 1.0 
LOAD COMB 379 COMB - 1 DEAD + 1 WIND (7)
5 1.0 13 1.0 
LOAD COMB 380 COMB - 1 DEAD + 1 WIND (8)
5 1.0 14 1.0 
LOAD COMB 381 COMB - 1 DEAD + -1 WIND (1)
5 1.0 7 -1.0 
LOAD COMB 382 COMB - 1 DEAD + -1 WIND (2)
5 1.0 8 -1.0 
LOAD COMB 383 COMB - 1 DEAD + -1 WIND (3)
5 1.0 9 -1.0 
LOAD COMB 384 COMB - 1 DEAD + -1 WIND (4)
5 1.0 10 -1.0 
LOAD COMB 385 COMB - 1 DEAD + -1 WIND (5)
5 1.0 11 -1.0 
LOAD COMB 386 COMB - 1 DEAD + -1 WIND (6)
5 1.0 12 -1.0 
LOAD COMB 387 COMB - 1 DEAD + -1 WIND (7)
5 1.0 13 -1.0 
LOAD COMB 388 COMB - 1 DEAD + -1 WIND (8)
5 1.0 14 -1.0 
LOAD COMB 389 COMB - 1 DEAD + 1 SEISMIC-H (1)
5 1.0 1 1.0 
LOAD COMB 390 COMB - 1 DEAD + 1 SEISMIC-H (2)
5 1.0 2 1.0 
LOAD COMB 391 COMB - 1 DEAD + 1 SEISMIC-H (3)
5 1.0 3 1.0 
LOAD COMB 392 COMB - 1 DEAD + 1 SEISMIC-H (4)
5 1.0 4 1.0 
LOAD COMB 393 COMB - 1 DEAD + -1 SEISMIC-H (1)
5 1.0 1 -1.0 
LOAD COMB 394 COMB - 1 DEAD + -1 SEISMIC-H (2)
5 1.0 2 -1.0 
LOAD COMB 395 COMB - 1 DEAD + -1 SEISMIC-H (3)
5 1.0 3 -1.0 
LOAD COMB 396 COMB - 1 DEAD + -1 SEISMIC-H (4)
5 1.0 4 -1.0 
PERFORM ANALYSIS
DEFINE ENVELOPE
201 TO 322 ENVELOPE 1 TYPE STRESS
323 TO 396 ENVELOPE 2 TYPE SERVICEABILITY
END DEFINE ENVELOPE
PARAMETER 1
CODE IS800 LSD
FYLD 345000 MEMB 1 TO 20 36 TO 45 51 TO 60 64 TO 69 72 73
BEAM 1 MEMB 1 TO 20 36 TO 45 51 TO 60 64 TO 69 72 73
RATIO 0.98 MEMB 1 TO 20 36 TO 45 51 TO 60 64 TO 69 72 73
MAIN 180 MEMB 1 TO 20 36 TO 45 51 TO 60 64 TO 69 72 73
TMAIN 400 MEMB 1 TO 20 36 TO 45 51 TO 60 64 TO 69 72 73
STP 2 MEMB 1 TO 20 36 TO 45 51 TO 60 64 TO 69 72 73
TRACK 2 MEMB 1 TO 20 36 TO 45 51 TO 60 64 TO 69 72 73
***COLUMN**
KX 1.2 MEMB 1 4 TO 6 9 TO 11 14 TO 16 19 20 36 39 TO 41 44 45 51 54 TO 56 -
59 60 64 TO 67 72 73
LX 1.5 MEMB 1 4 TO 6 9 TO 11 14 TO 16 19 20 36 39 TO 41 44 45 51 54 TO 56 -
59 60 66 67 72 73
LY 1.5 MEMB 1 4 TO 6 9 TO 11 14 TO 16 19 20 36 39 TO 41 44 45 51 54 TO 56 -
59 60 66 67 72 73
LZ 9.5 MEMB 1 4 TO 6 9 TO 11 14 TO 16 19 20 36 39 TO 41 44 45 51 54 TO 56 -
59 60 66 67
LZ 5 MEMB 64 65 72 73
*RAFTER
LZ 10.47 MEMB 2 3 12 13 37 38 52 53
LX 1.5 MEMB 2 3 12 13 37 38 52 53 68 69
LY 1.5 MEMB 2 3 12 13 37 38 52 53 68 69
LZ 4.3 MEMB 68 69
*BRACKET
CAN 1 MEMB 7 8 17 18 42 43 57 58
*BRACING
BEAM 1 MEMB 21 TO 26 28 TO 35
FYLD 250000 MEMB 21 TO 26 28 TO 35
MAIN 200 MEMB 21 TO 26 28 TO 35
RATIO 0.98 MEMB 21 TO 26 28 TO 35
STP 1 MEMB 21 TO 26 28 TO 35
TRACK 2 MEMB 21 TO 26 28 TO 35
STEEL MEMBER TAKE OFF LIST 1 TO 20 36 TO 45 51 TO 60 64 TO 69 72 73
CHECK CODE MEMB 1 TO 26 28 TO 45 51 TO 60 66 67
STEEL MEMBER TAKE OFF LIST 21 TO 26 28 TO 35
FINISH
